MODEL 1
REMARK VINA RESULT:      -8.8      0.000      0.000
REMARK  Name = LIGAND
REMARK  7 active torsions:
REMARK  status: ('A' for Active; 'I' for Inactive)
REMARK    1  A    between atoms: C_1  and  C_26
REMARK    2  A    between atoms: C_6  and  C_11
REMARK    3  A    between atoms: C_11  and  N_14
REMARK    4  A    between atoms: C_24  and  C_35
REMARK    5  A    between atoms: C_40  and  C_42
REMARK    6  A    between atoms: C_42  and  C_47
REMARK    7  A    between atoms: C_47  and  C_50
REMARK                            x       y       z     vdW  Elec       q    Type
REMARK                         _______ _______ _______ _____ _____    ______ ____
ROOT
ATOM      1  C   UNL     1      42.557 110.381  83.010  0.00  0.00    +0.022 C 
ATOM      2  C   UNL     1      41.330 110.859  82.137  0.00  0.00    +0.027 C 
ATOM      3  C   UNL     1      39.995 110.527  82.830  0.00  0.00    +0.108 C 
ATOM      4  N   UNL     1      39.908 111.085  84.217  0.00  0.00    -0.297 N 
ATOM      5  C   UNL     1      38.971 112.079  84.546  0.00  0.00    +0.248 C 
ATOM      6  O   UNL     1      38.198 112.555  83.725  0.00  0.00    -0.270 OA
ATOM      7  C   UNL     1      40.983 110.509  85.065  0.00  0.00    +0.108 C 
ATOM      8  C   UNL     1      42.385 110.940  84.484  0.00  0.00    +0.027 C 
ENDROOT
BRANCH   1   9
ATOM      9  C   UNL     1      43.907 110.726  82.346  0.00  0.00    -0.044 A 
ATOM     10  C   UNL     1      45.128 110.544  83.121  0.00  0.00    +0.004 A 
ATOM     11  C   UNL     1      46.411 110.854  82.560  0.00  0.00    +0.000 A 
ATOM     12  C   UNL     1      46.526 111.350  81.229  0.00  0.00    +0.002 A 
ATOM     13  C   UNL     1      45.336 111.546  80.428  0.00  0.00    -0.065 A 
ATOM     14  C   UNL     1      44.030 111.234  80.994  0.00  0.00    +0.005 A 
BRANCH  13  15
ATOM     15  C   UNL     1      45.456 112.078  79.023  0.00  0.00    -0.051 C 
BRANCH  15  16
ATOM     16  N   UNL     1      44.850 111.195  77.980  0.00  0.00    +0.381 N 
ATOM     17  H   UNL     1      44.791 111.663  77.088  0.00  0.00    -0.090 HD
ATOM     18  H   UNL     1      43.906 110.933  78.229  0.00  0.00    -0.090 HD
ATOM     19  H   UNL     1      45.378 110.344  77.844  0.00  0.00    -0.090 HD
ENDBRANCH  15  16
ENDBRANCH  13  15
ENDBRANCH   1   9
BRANCH   5  20
ATOM     20  C   UNL     1      38.786 112.635  85.931  0.00  0.00    +0.055 A 
ATOM     21  C   UNL     1      37.732 112.176  86.769  0.00  0.00    +0.123 A 
ATOM     22  N   UNL     1      37.490 112.645  88.007  0.00  0.00    -0.262 NA
ATOM     23  C   UNL     1      38.277 113.617  88.500  0.00  0.00    +0.114 A 
ATOM     24  C   UNL     1      39.374 114.180  87.784  0.00  0.00    -0.028 A 
ATOM     25  C   UNL     1      39.638 113.669  86.449  0.00  0.00    +0.019 A 
BRANCH  24  26
ATOM     26  C   UNL     1      40.198 115.273  88.384  0.00  0.00    +0.041 C 
BRANCH  26  27
ATOM     27  C   UNL     1      41.608 114.825  88.749  0.00  0.00    +0.040 C 
BRANCH  27  28
ATOM     28  C   UNL     1      41.899 114.592  90.211  0.00  0.00    -0.047 A 
ATOM     29  C   UNL     1      41.874 115.715  91.146  0.00  0.00    +0.003 A 
ATOM     30  C   UNL     1      42.141 115.504  92.537  0.00  0.00    +0.000 A 
ATOM     31  C   UNL     1      42.445 114.179  93.047  0.00  0.00    +0.000 A 
ATOM     32  C   UNL     1      42.473 113.064  92.137  0.00  0.00    +0.000 A 
ATOM     33  C   UNL     1      42.199 113.280  90.715  0.00  0.00    +0.003 A 
ENDBRANCH  27  28
ENDBRANCH  26  27
ENDBRANCH  24  26
ENDBRANCH   5  20
TORSDOF 7
ENDMDL
MODEL 2
REMARK VINA RESULT:      -8.6      4.218      6.292
REMARK  Name = LIGAND
REMARK  7 active torsions:
REMARK  status: ('A' for Active; 'I' for Inactive)
REMARK    1  A    between atoms: C_1  and  C_26
REMARK    2  A    between atoms: C_6  and  C_11
REMARK    3  A    between atoms: C_11  and  N_14
REMARK    4  A    between atoms: C_24  and  C_35
REMARK    5  A    between atoms: C_40  and  C_42
REMARK    6  A    between atoms: C_42  and  C_47
REMARK    7  A    between atoms: C_47  and  C_50
REMARK                            x       y       z     vdW  Elec       q    Type
REMARK                         _______ _______ _______ _____ _____    ______ ____
ROOT
ATOM      1  C   UNL     1      42.211 110.625  82.820  0.00  0.00    +0.022 C 
ATOM      2  C   UNL     1      41.169 110.299  81.679  0.00  0.00    +0.027 C 
ATOM      3  C   UNL     1      39.759 110.086  82.262  0.00  0.00    +0.108 C 
ATOM      4  N   UNL     1      39.294 111.246  83.089  0.00  0.00    -0.297 N 
ATOM      5  C   UNL     1      38.198 112.031  82.693  0.00  0.00    +0.248 C 
ATOM      6  O   UNL     1      37.582 111.829  81.655  0.00  0.00    -0.270 OA
ATOM      7  C   UNL     1      40.207 111.445  84.244  0.00  0.00    +0.108 C 
ATOM      8  C   UNL     1      41.645 111.811  83.707  0.00  0.00    +0.027 C 
ENDROOT
BRANCH   1   9
ATOM      9  C   UNL     1      43.627 110.867  82.255  0.00  0.00    -0.044 A 
ATOM     10  C   UNL     1      44.773 110.586  83.112  0.00  0.00    +0.004 A 
ATOM     11  C   UNL     1      46.113 110.797  82.644  0.00  0.00    +0.000 A 
ATOM     12  C   UNL     1      46.360 111.288  81.329  0.00  0.00    +0.002 A 
ATOM     13  C   UNL     1      45.248 111.579  80.450  0.00  0.00    -0.065 A 
ATOM     14  C   UNL     1      43.885 111.368  80.920  0.00  0.00    +0.005 A 
BRANCH  13  15
ATOM     15  C   UNL     1      45.507 112.105  79.062  0.00  0.00    -0.051 C 
BRANCH  15  16
ATOM     16  N   UNL     1      44.883 111.294  77.972  0.00  0.00    +0.381 N 
ATOM     17  H   UNL     1      43.954 110.991  78.221  0.00  0.00    -0.090 HD
ATOM     18  H   UNL     1      45.419 110.456  77.790  0.00  0.00    -0.090 HD
ATOM     19  H   UNL     1      44.814 111.807  77.104  0.00  0.00    -0.090 HD
ENDBRANCH  15  16
ENDBRANCH  13  15
ENDBRANCH   1   9
BRANCH   5  20
ATOM     20  C   UNL     1      37.639 113.165  83.507  0.00  0.00    +0.055 A 
ATOM     21  C   UNL     1      37.317 112.990  84.882  0.00  0.00    +0.123 A 
ATOM     22  N   UNL     1      36.790 113.950  85.665  0.00  0.00    -0.262 NA
ATOM     23  C   UNL     1      36.535 115.158  85.130  0.00  0.00    +0.114 A 
ATOM     24  C   UNL     1      36.804 115.489  83.770  0.00  0.00    -0.028 A 
ATOM     25  C   UNL     1      37.378 114.453  82.927  0.00  0.00    +0.019 A 
BRANCH  24  26
ATOM     26  C   UNL     1      36.479 116.846  83.235  0.00  0.00    +0.041 C 
BRANCH  26  27
ATOM     27  C   UNL     1      35.272 116.849  82.305  0.00  0.00    +0.040 C 
BRANCH  27  28
ATOM     28  C   UNL     1      34.049 116.094  82.763  0.00  0.00    -0.047 A 
ATOM     29  C   UNL     1      33.270 116.588  83.897  0.00  0.00    +0.003 A 
ATOM     30  C   UNL     1      32.103 115.884  84.335  0.00  0.00    +0.000 A 
ATOM     31  C   UNL     1      31.670 114.668  83.670  0.00  0.00    +0.000 A 
ATOM     32  C   UNL     1      32.427 114.170  82.551  0.00  0.00    +0.000 A 
ATOM     33  C   UNL     1      33.620 114.892  82.102  0.00  0.00    +0.003 A 
ENDBRANCH  27  28
ENDBRANCH  26  27
ENDBRANCH  24  26
ENDBRANCH   5  20
TORSDOF 7
ENDMDL
MODEL 3
REMARK VINA RESULT:      -8.3      4.334      5.440
REMARK  Name = LIGAND
REMARK  7 active torsions:
REMARK  status: ('A' for Active; 'I' for Inactive)
REMARK    1  A    between atoms: C_1  and  C_26
REMARK    2  A    between atoms: C_6  and  C_11
REMARK    3  A    between atoms: C_11  and  N_14
REMARK    4  A    between atoms: C_24  and  C_35
REMARK    5  A    between atoms: C_40  and  C_42
REMARK    6  A    between atoms: C_42  and  C_47
REMARK    7  A    between atoms: C_47  and  C_50
REMARK                            x       y       z     vdW  Elec       q    Type
REMARK                         _______ _______ _______ _____ _____    ______ ____
ROOT
ATOM      1  C   UNL     1      42.144 110.883  82.928  0.00  0.00    +0.022 C 
ATOM      2  C   UNL     1      41.094 110.393  81.855  0.00  0.00    +0.027 C 
ATOM      3  C   UNL     1      39.691 110.258  82.475  0.00  0.00    +0.108 C 
ATOM      4  N   UNL     1      39.225 111.520  83.134  0.00  0.00    -0.297 N 
ATOM      5  C   UNL     1      38.120 112.235  82.642  0.00  0.00    +0.248 C 
ATOM      6  O   UNL     1      37.497 111.885  81.649  0.00  0.00    -0.270 OA
ATOM      7  C   UNL     1      40.147 111.886  84.241  0.00  0.00    +0.108 C 
ATOM      8  C   UNL     1      41.578 112.179  83.644  0.00  0.00    +0.027 C 
ENDROOT
BRANCH   1   9
ATOM      9  C   UNL     1      43.554 111.050  82.322  0.00  0.00    -0.044 A 
ATOM     10  C   UNL     1      44.710 110.808  83.176  0.00  0.00    +0.004 A 
ATOM     11  C   UNL     1      46.045 110.953  82.670  0.00  0.00    +0.000 A 
ATOM     12  C   UNL     1      46.276 111.339  81.317  0.00  0.00    +0.002 A 
ATOM     13  C   UNL     1      45.153 111.589  80.438  0.00  0.00    -0.065 A 
ATOM     14  C   UNL     1      43.796 111.444  80.948  0.00  0.00    +0.005 A 
BRANCH  13  15
ATOM     15  C   UNL     1      45.396 112.004  79.010  0.00  0.00    -0.051 C 
BRANCH  15  16
ATOM     16  N   UNL     1      44.232 112.682  78.362  0.00  0.00    +0.381 N 
ATOM     17  H   UNL     1      43.612 112.016  77.926  0.00  0.00    -0.090 HD
ATOM     18  H   UNL     1      44.539 113.309  77.630  0.00  0.00    -0.090 HD
ATOM     19  H   UNL     1      43.688 113.222  79.020  0.00  0.00    -0.090 HD
ENDBRANCH  15  16
ENDBRANCH  13  15
ENDBRANCH   1   9
BRANCH   5  20
ATOM     20  C   UNL     1      37.562 113.470  83.292  0.00  0.00    +0.055 A 
ATOM     21  C   UNL     1      37.937 114.768  82.841  0.00  0.00    +0.123 A 
ATOM     22  N   UNL     1      37.499 115.916  83.390  0.00  0.00    -0.262 NA
ATOM     23  C   UNL     1      36.659 115.856  84.439  0.00  0.00    +0.114 A 
ATOM     24  C   UNL     1      36.190 114.635  85.004  0.00  0.00    -0.028 A 
ATOM     25  C   UNL     1      36.659 113.395  84.407  0.00  0.00    +0.019 A 
BRANCH  24  26
ATOM     26  C   UNL     1      35.271 114.640  86.182  0.00  0.00    +0.041 C 
BRANCH  26  27
ATOM     27  C   UNL     1      34.546 115.967  86.368  0.00  0.00    +0.040 C 
BRANCH  27  28
ATOM     28  C   UNL     1      33.481 116.026  87.435  0.00  0.00    -0.047 A 
ATOM     29  C   UNL     1      32.182 116.624  87.134  0.00  0.00    +0.003 A 
ATOM     30  C   UNL     1      31.160 116.678  88.135  0.00  0.00    +0.000 A 
ATOM     31  C   UNL     1      31.390 116.147  89.467  0.00  0.00    +0.000 A 
ATOM     32  C   UNL     1      32.665 115.554  89.777  0.00  0.00    +0.000 A 
ATOM     33  C   UNL     1      33.709 115.498  88.752  0.00  0.00    +0.003 A 
ENDBRANCH  27  28
ENDBRANCH  26  27
ENDBRANCH  24  26
ENDBRANCH   5  20
TORSDOF 7
ENDMDL
MODEL 4
REMARK VINA RESULT:      -8.2      1.981      2.978
REMARK  Name = LIGAND
REMARK  7 active torsions:
REMARK  status: ('A' for Active; 'I' for Inactive)
REMARK    1  A    between atoms: C_1  and  C_26
REMARK    2  A    between atoms: C_6  and  C_11
REMARK    3  A    between atoms: C_11  and  N_14
REMARK    4  A    between atoms: C_24  and  C_35
REMARK    5  A    between atoms: C_40  and  C_42
REMARK    6  A    between atoms: C_42  and  C_47
REMARK    7  A    between atoms: C_47  and  C_50
REMARK                            x       y       z     vdW  Elec       q    Type
REMARK                         _______ _______ _______ _____ _____    ______ ____
ROOT
ATOM      1  C   UNL     1      42.339 111.105  82.907  0.00  0.00    +0.022 C 
ATOM      2  C   UNL     1      41.282 110.525  81.887  0.00  0.00    +0.027 C 
ATOM      3  C   UNL     1      39.908 110.341  82.559  0.00  0.00    +0.108 C 
ATOM      4  N   UNL     1      39.399 111.601  83.191  0.00  0.00    -0.297 N 
ATOM      5  C   UNL     1      38.244 112.242  82.713  0.00  0.00    +0.248 C 
ATOM      6  O   UNL     1      37.608 111.827  81.754  0.00  0.00    -0.270 OA
ATOM      7  C   UNL     1      40.336 112.051  84.252  0.00  0.00    +0.108 C 
ATOM      8  C   UNL     1      41.730 112.395  83.598  0.00  0.00    +0.027 C 
ENDROOT
BRANCH   1   9
ATOM      9  C   UNL     1      43.718 111.320  82.248  0.00  0.00    -0.044 A 
ATOM     10  C   UNL     1      44.895 111.383  83.105  0.00  0.00    +0.004 A 
ATOM     11  C   UNL     1      46.203 111.588  82.550  0.00  0.00    +0.000 A 
ATOM     12  C   UNL     1      46.384 111.737  81.145  0.00  0.00    +0.002 A 
ATOM     13  C   UNL     1      45.240 111.681  80.260  0.00  0.00    -0.065 A 
ATOM     14  C   UNL     1      43.910 111.475  80.819  0.00  0.00    +0.005 A 
BRANCH  13  15
ATOM     15  C   UNL     1      45.430 111.846  78.775  0.00  0.00    -0.051 C 
BRANCH  15  16
ATOM     16  N   UNL     1      44.251 112.430  78.066  0.00  0.00    +0.381 N 
ATOM     17  H   UNL     1      43.389 112.221  78.546  0.00  0.00    -0.090 HD
ATOM     18  H   UNL     1      44.160 112.045  77.135  0.00  0.00    -0.090 HD
ATOM     19  H   UNL     1      44.316 113.433  77.977  0.00  0.00    -0.090 HD
ENDBRANCH  15  16
ENDBRANCH  13  15
ENDBRANCH   1   9
BRANCH   5  20
ATOM     20  C   UNL     1      37.644 113.470  83.340  0.00  0.00    +0.055 A 
ATOM     21  C   UNL     1      37.138 114.529  82.535  0.00  0.00    +0.123 A 
ATOM     22  N   UNL     1      36.612 115.667  83.025  0.00  0.00    -0.262 NA
ATOM     23  C   UNL     1      36.560 115.839  84.357  0.00  0.00    +0.114 A 
ATOM     24  C   UNL     1      37.023 114.870  85.295  0.00  0.00    -0.028 A 
ATOM     25  C   UNL     1      37.586 113.639  84.765  0.00  0.00    +0.019 A 
BRANCH  24  26
ATOM     26  C   UNL     1      36.952 115.132  86.764  0.00  0.00    +0.041 C 
BRANCH  26  27
ATOM     27  C   UNL     1      37.735 114.119  87.590  0.00  0.00    +0.040 C 
BRANCH  27  28
ATOM     28  C   UNL     1      39.075 114.558  88.128  0.00  0.00    -0.047 A 
ATOM     29  C   UNL     1      40.297 114.216  87.404  0.00  0.00    +0.003 A 
ATOM     30  C   UNL     1      41.574 114.633  87.900  0.00  0.00    +0.000 A 
ATOM     31  C   UNL     1      41.683 115.398  89.129  0.00  0.00    +0.000 A 
ATOM     32  C   UNL     1      40.488 115.743  89.853  0.00  0.00    +0.000 A 
ATOM     33  C   UNL     1      39.182 115.317  89.343  0.00  0.00    +0.003 A 
ENDBRANCH  27  28
ENDBRANCH  26  27
ENDBRANCH  24  26
ENDBRANCH   5  20
TORSDOF 7
ENDMDL
MODEL 5
REMARK VINA RESULT:      -8.2      2.348      3.552
REMARK  Name = LIGAND
REMARK  7 active torsions:
REMARK  status: ('A' for Active; 'I' for Inactive)
REMARK    1  A    between atoms: C_1  and  C_26
REMARK    2  A    between atoms: C_6  and  C_11
REMARK    3  A    between atoms: C_11  and  N_14
REMARK    4  A    between atoms: C_24  and  C_35
REMARK    5  A    between atoms: C_40  and  C_42
REMARK    6  A    between atoms: C_42  and  C_47
REMARK    7  A    between atoms: C_47  and  C_50
REMARK                            x       y       z     vdW  Elec       q    Type
REMARK                         _______ _______ _______ _____ _____    ______ ____
ROOT
ATOM      1  C   UNL     1      43.473 110.745  84.698  0.00  0.00    +0.022 C 
ATOM      2  C   UNL     1      41.906 110.578  84.576  0.00  0.00    +0.027 C 
ATOM      3  C   UNL     1      41.258 110.416  85.963  0.00  0.00    +0.108 C 
ATOM      4  N   UNL     1      41.600 111.536  86.897  0.00  0.00    -0.297 N 
ATOM      5  C   UNL     1      40.615 112.420  87.368  0.00  0.00    +0.248 C 
ATOM      6  O   UNL     1      39.442 112.342  87.031  0.00  0.00    -0.270 OA
ATOM      7  C   UNL     1      43.069 111.583  87.117  0.00  0.00    +0.108 C 
ATOM      8  C   UNL     1      43.785 111.893  85.745  0.00  0.00    +0.027 C 
ENDROOT
BRANCH   1   9
ATOM      9  C   UNL     1      44.141 110.935  83.319  0.00  0.00    -0.044 A 
ATOM     10  C   UNL     1      43.528 110.303  82.158  0.00  0.00    +0.004 A 
ATOM     11  C   UNL     1      44.107 110.438  80.852  0.00  0.00    +0.000 A 
ATOM     12  C   UNL     1      45.300 111.194  80.657  0.00  0.00    +0.002 A 
ATOM     13  C   UNL     1      45.939 111.835  81.786  0.00  0.00    -0.065 A 
ATOM     14  C   UNL     1      45.355 111.700  83.114  0.00  0.00    +0.005 A 
BRANCH  13  15
ATOM     15  C   UNL     1      47.203 112.629  81.581  0.00  0.00    -0.051 C 
BRANCH  15  16
ATOM     16  N   UNL     1      47.166 113.551  80.405  0.00  0.00    +0.381 N 
ATOM     17  H   UNL     1      46.417 114.222  80.484  0.00  0.00    -0.090 HD
ATOM     18  H   UNL     1      47.004 113.040  79.548  0.00  0.00    -0.090 HD
ATOM     19  H   UNL     1      48.028 114.066  80.295  0.00  0.00    -0.090 HD
ENDBRANCH  15  16
ENDBRANCH  13  15
ENDBRANCH   1   9
BRANCH   5  20
ATOM     20  C   UNL     1      40.879 113.523  88.356  0.00  0.00    +0.055 A 
ATOM     21  C   UNL     1      40.849 114.888  87.953  0.00  0.00    +0.123 A 
ATOM     22  N   UNL     1      41.100 115.925  88.774  0.00  0.00    -0.262 NA
ATOM     23  C   UNL     1      41.410 115.677  90.059  0.00  0.00    +0.114 A 
ATOM     24  C   UNL     1      41.478 114.366  90.613  0.00  0.00    -0.028 A 
ATOM     25  C   UNL     1      41.201 113.247  89.728  0.00  0.00    +0.019 A 
BRANCH  24  26
ATOM     26  C   UNL     1      41.846 114.160  92.047  0.00  0.00    +0.041 C 
BRANCH  26  27
ATOM     27  C   UNL     1      42.763 112.962  92.262  0.00  0.00    +0.040 C 
BRANCH  27  28
ATOM     28  C   UNL     1      42.264 111.868  93.173  0.00  0.00    -0.047 A 
ATOM     29  C   UNL     1      42.990 111.557  94.403  0.00  0.00    +0.003 A 
ATOM     30  C   UNL     1      42.522 110.526  95.280  0.00  0.00    +0.000 A 
ATOM     31  C   UNL     1      41.324 109.768  94.967  0.00  0.00    +0.000 A 
ATOM     32  C   UNL     1      40.598 110.064  93.760  0.00  0.00    +0.000 A 
ATOM     33  C   UNL     1      41.077 111.120  92.865  0.00  0.00    +0.003 A 
ENDBRANCH  27  28
ENDBRANCH  26  27
ENDBRANCH  24  26
ENDBRANCH   5  20
TORSDOF 7
ENDMDL
MODEL 6
REMARK VINA RESULT:      -8.0      8.056     13.758
REMARK  Name = LIGAND
REMARK  7 active torsions:
REMARK  status: ('A' for Active; 'I' for Inactive)
REMARK    1  A    between atoms: C_1  and  C_26
REMARK    2  A    between atoms: C_6  and  C_11
REMARK    3  A    between atoms: C_11  and  N_14
REMARK    4  A    between atoms: C_24  and  C_35
REMARK    5  A    between atoms: C_40  and  C_42
REMARK    6  A    between atoms: C_42  and  C_47
REMARK    7  A    between atoms: C_47  and  C_50
REMARK                            x       y       z     vdW  Elec       q    Type
REMARK                         _______ _______ _______ _____ _____    ______ ____
ROOT
ATOM      1  C   UNL     1      30.344 113.146  89.924  0.00  0.00    +0.022 C 
ATOM      2  C   UNL     1      30.198 114.684  90.255  0.00  0.00    +0.027 C 
ATOM      3  C   UNL     1      31.577 115.364  90.338  0.00  0.00    +0.108 C 
ATOM      4  N   UNL     1      32.398 115.164  89.101  0.00  0.00    -0.297 N 
ATOM      5  C   UNL     1      32.747 116.244  88.273  0.00  0.00    +0.248 C 
ATOM      6  O   UNL     1      32.388 117.392  88.500  0.00  0.00    -0.270 OA
ATOM      7  C   UNL     1      32.650 113.715  88.888  0.00  0.00    +0.108 C 
ATOM      8  C   UNL     1      31.273 112.981  88.651  0.00  0.00    +0.027 C 
ENDROOT
BRANCH   1   9
ATOM      9  C   UNL     1      28.972 112.448  89.812  0.00  0.00    -0.044 A 
ATOM     10  C   UNL     1      28.205 112.223  91.031  0.00  0.00    +0.004 A 
ATOM     11  C   UNL     1      26.926 111.574  90.990  0.00  0.00    +0.000 A 
ATOM     12  C   UNL     1      26.372 111.130  89.755  0.00  0.00    +0.002 A 
ATOM     13  C   UNL     1      27.103 111.334  88.522  0.00  0.00    -0.065 A 
ATOM     14  C   UNL     1      28.403 111.992  88.559  0.00  0.00    +0.005 A 
BRANCH  13  15
ATOM     15  C   UNL     1      26.520 110.859  87.216  0.00  0.00    -0.051 C 
BRANCH  15  16
ATOM     16  N   UNL     1      26.221 111.954  86.243  0.00  0.00    +0.381 N 
ATOM     17  H   UNL     1      26.705 111.815  85.369  0.00  0.00    -0.090 HD
ATOM     18  H   UNL     1      26.526 112.850  86.600  0.00  0.00    -0.090 HD
ATOM     19  H   UNL     1      25.235 112.026  86.039  0.00  0.00    -0.090 HD
ENDBRANCH  15  16
ENDBRANCH  13  15
ENDBRANCH   1   9
BRANCH   5  20
ATOM     20  C   UNL     1      33.620 116.123  87.055  0.00  0.00    +0.055 A 
ATOM     21  C   UNL     1      35.031 115.980  87.179  0.00  0.00    +0.123 A 
ATOM     22  N   UNL     1      35.876 115.892  86.135  0.00  0.00    -0.262 NA
ATOM     23  C   UNL     1      35.378 115.950  84.887  0.00  0.00    +0.114 A 
ATOM     24  C   UNL     1      33.989 116.090  84.600  0.00  0.00    -0.028 A 
ATOM     25  C   UNL     1      33.076 116.179  85.727  0.00  0.00    +0.019 A 
BRANCH  24  26
ATOM     26  C   UNL     1      33.504 116.166  83.189  0.00  0.00    +0.041 C 
BRANCH  26  27
ATOM     27  C   UNL     1      34.631 116.098  82.165  0.00  0.00    +0.040 C 
BRANCH  27  28
ATOM     28  C   UNL     1      34.593 114.960  81.175  0.00  0.00    -0.047 A 
ATOM     29  C   UNL     1      33.588 114.952  80.114  0.00  0.00    +0.003 A 
ATOM     30  C   UNL     1      33.547 113.882  79.163  0.00  0.00    +0.000 A 
ATOM     31  C   UNL     1      34.495 112.784  79.234  0.00  0.00    +0.000 A 
ATOM     32  C   UNL     1      35.491 112.779  80.273  0.00  0.00    +0.000 A 
ATOM     33  C   UNL     1      35.533 113.876  81.244  0.00  0.00    +0.003 A 
ENDBRANCH  27  28
ENDBRANCH  26  27
ENDBRANCH  24  26
ENDBRANCH   5  20
TORSDOF 7
ENDMDL
MODEL 7
REMARK VINA RESULT:      -7.9      3.578      5.806
REMARK  Name = LIGAND
REMARK  7 active torsions:
REMARK  status: ('A' for Active; 'I' for Inactive)
REMARK    1  A    between atoms: C_1  and  C_26
REMARK    2  A    between atoms: C_6  and  C_11
REMARK    3  A    between atoms: C_11  and  N_14
REMARK    4  A    between atoms: C_24  and  C_35
REMARK    5  A    between atoms: C_40  and  C_42
REMARK    6  A    between atoms: C_42  and  C_47
REMARK    7  A    between atoms: C_47  and  C_50
REMARK                            x       y       z     vdW  Elec       q    Type
REMARK                         _______ _______ _______ _____ _____    ______ ____
ROOT
ATOM      1  C   UNL     1      43.783 111.755  85.661  0.00  0.00    +0.022 C 
ATOM      2  C   UNL     1      43.245 110.612  86.610  0.00  0.00    +0.027 C 
ATOM      3  C   UNL     1      43.065 111.128  88.050  0.00  0.00    +0.108 C 
ATOM      4  N   UNL     1      42.185 112.338  88.125  0.00  0.00    -0.297 N 
ATOM      5  C   UNL     1      40.943 112.297  88.782  0.00  0.00    +0.248 C 
ATOM      6  O   UNL     1      40.505 111.280  89.304  0.00  0.00    -0.270 OA
ATOM      7  C   UNL     1      42.784 113.452  87.346  0.00  0.00    +0.108 C 
ATOM      8  C   UNL     1      42.862 113.034  85.826  0.00  0.00    +0.027 C 
ENDROOT
BRANCH   1   9
ATOM      9  C   UNL     1      43.948 111.266  84.206  0.00  0.00    -0.044 A 
ATOM     10  C   UNL     1      42.890 110.450  83.624  0.00  0.00    +0.004 A 
ATOM     11  C   UNL     1      42.990 109.962  82.278  0.00  0.00    +0.000 A 
ATOM     12  C   UNL     1      44.129 110.261  81.476  0.00  0.00    +0.002 A 
ATOM     13  C   UNL     1      45.201 111.067  82.019  0.00  0.00    -0.065 A 
ATOM     14  C   UNL     1      45.104 111.565  83.385  0.00  0.00    +0.005 A 
BRANCH  13  15
ATOM     15  C   UNL     1      46.409 111.378  81.173  0.00  0.00    -0.051 C 
BRANCH  15  16
ATOM     16  N   UNL     1      46.151 112.354  80.070  0.00  0.00    +0.381 N 
ATOM     17  H   UNL     1      45.788 113.226  80.424  0.00  0.00    -0.090 HD
ATOM     18  H   UNL     1      45.459 111.998  79.424  0.00  0.00    -0.090 HD
ATOM     19  H   UNL     1      46.985 112.562  79.540  0.00  0.00    -0.090 HD
ENDBRANCH  15  16
ENDBRANCH  13  15
ENDBRANCH   1   9
BRANCH   5  20
ATOM     20  C   UNL     1      40.042 113.489  88.951  0.00  0.00    +0.055 A 
ATOM     21  C   UNL     1      40.252 114.421  90.006  0.00  0.00    +0.123 A 
ATOM     22  N   UNL     1      39.472 115.494  90.234  0.00  0.00    -0.262 NA
ATOM     23  C   UNL     1      38.416 115.713  89.431  0.00  0.00    +0.114 A 
ATOM     24  C   UNL     1      38.075 114.873  88.331  0.00  0.00    -0.028 A 
ATOM     25  C   UNL     1      38.921 113.717  88.082  0.00  0.00    +0.019 A 
BRANCH  24  26
ATOM     26  C   UNL     1      36.876 115.164  87.489  0.00  0.00    +0.041 C 
BRANCH  26  27
ATOM     27  C   UNL     1      35.664 115.599  88.304  0.00  0.00    +0.040 C 
BRANCH  27  28
ATOM     28  C   UNL     1      34.420 115.977  87.540  0.00  0.00    -0.047 A 
ATOM     29  C   UNL     1      33.221 116.398  88.263  0.00  0.00    +0.003 A 
ATOM     30  C   UNL     1      32.036 116.767  87.549  0.00  0.00    +0.000 A 
ATOM     31  C   UNL     1      31.997 116.728  86.097  0.00  0.00    +0.000 A 
ATOM     32  C   UNL     1      33.170 116.316  85.372  0.00  0.00    +0.000 A 
ATOM     33  C   UNL     1      34.382 115.940  86.104  0.00  0.00    +0.003 A 
ENDBRANCH  27  28
ENDBRANCH  26  27
ENDBRANCH  24  26
ENDBRANCH   5  20
TORSDOF 7
ENDMDL
MODEL 8
REMARK VINA RESULT:      -7.9      2.431      3.576
REMARK  Name = LIGAND
REMARK  7 active torsions:
REMARK  status: ('A' for Active; 'I' for Inactive)
REMARK    1  A    between atoms: C_1  and  C_26
REMARK    2  A    between atoms: C_6  and  C_11
REMARK    3  A    between atoms: C_11  and  N_14
REMARK    4  A    between atoms: C_24  and  C_35
REMARK    5  A    between atoms: C_40  and  C_42
REMARK    6  A    between atoms: C_42  and  C_47
REMARK    7  A    between atoms: C_47  and  C_50
REMARK                            x       y       z     vdW  Elec       q    Type
REMARK                         _______ _______ _______ _____ _____    ______ ____
ROOT
ATOM      1  C   UNL     1      42.944 111.124  84.110  0.00  0.00    +0.022 C 
ATOM      2  C   UNL     1      41.598 111.847  83.711  0.00  0.00    +0.027 C 
ATOM      3  C   UNL     1      40.574 111.784  84.861  0.00  0.00    +0.108 C 
ATOM      4  N   UNL     1      41.112 112.336  86.146  0.00  0.00    -0.297 N 
ATOM      5  C   UNL     1      40.570 113.495  86.725  0.00  0.00    +0.248 C 
ATOM      6  O   UNL     1      39.655 114.124  86.211  0.00  0.00    -0.270 OA
ATOM      7  C   UNL     1      42.293 111.547  86.583  0.00  0.00    +0.108 C 
ATOM      8  C   UNL     1      43.437 111.692  85.506  0.00  0.00    +0.027 C 
ENDROOT
BRANCH   1   9
ATOM      9  C   UNL     1      43.994 111.196  82.981  0.00  0.00    -0.044 A 
ATOM     10  C   UNL     1      45.381 110.887  83.303  0.00  0.00    +0.004 A 
ATOM     11  C   UNL     1      46.403 110.943  82.297  0.00  0.00    +0.000 A 
ATOM     12  C   UNL     1      46.087 111.306  80.955  0.00  0.00    +0.002 A 
ATOM     13  C   UNL     1      44.721 111.621  80.597  0.00  0.00    -0.065 A 
ATOM     14  C   UNL     1      43.680 111.566  81.615  0.00  0.00    +0.005 A 
BRANCH  13  15
ATOM     15  C   UNL     1      44.387 112.011  79.180  0.00  0.00    -0.051 C 
BRANCH  15  16
ATOM     16  N   UNL     1      45.156 111.262  78.140  0.00  0.00    +0.381 N 
ATOM     17  H   UNL     1      45.909 111.818  77.763  0.00  0.00    -0.090 HD
ATOM     18  H   UNL     1      44.564 111.013  77.358  0.00  0.00    -0.090 HD
ATOM     19  H   UNL     1      45.559 110.409  78.501  0.00  0.00    -0.090 HD
ENDBRANCH  15  16
ENDBRANCH  13  15
ENDBRANCH   1   9
BRANCH   5  20
ATOM     20  C   UNL     1      41.017 114.064  88.043  0.00  0.00    +0.055 A 
ATOM     21  C   UNL     1      41.074 115.472  88.250  0.00  0.00    +0.123 A 
ATOM     22  N   UNL     1      41.489 116.052  89.392  0.00  0.00    -0.262 NA
ATOM     23  C   UNL     1      41.889 115.271  90.411  0.00  0.00    +0.114 A 
ATOM     24  C   UNL     1      41.888 113.847  90.358  0.00  0.00    -0.028 A 
ATOM     25  C   UNL     1      41.435 113.220  89.128  0.00  0.00    +0.019 A 
BRANCH  24  26
ATOM     26  C   UNL     1      42.363 113.038  91.522  0.00  0.00    +0.041 C 
BRANCH  26  27
ATOM     27  C   UNL     1      41.892 111.590  91.476  0.00  0.00    +0.040 C 
BRANCH  27  28
ATOM     28  C   UNL     1      42.943 110.531  91.254  0.00  0.00    -0.047 A 
ATOM     29  C   UNL     1      43.407 110.238  89.899  0.00  0.00    +0.003 A 
ATOM     30  C   UNL     1      44.409 109.241  89.676  0.00  0.00    +0.000 A 
ATOM     31  C   UNL     1      44.983 108.499  90.785  0.00  0.00    +0.000 A 
ATOM     32  C   UNL     1      44.536 108.776  92.125  0.00  0.00    +0.000 A 
ATOM     33  C   UNL     1      43.511 109.798  92.352  0.00  0.00    +0.003 A 
ENDBRANCH  27  28
ENDBRANCH  26  27
ENDBRANCH  24  26
ENDBRANCH   5  20
TORSDOF 7
ENDMDL
MODEL 9
REMARK VINA RESULT:      -7.9      7.023     12.052
REMARK  Name = LIGAND
REMARK  7 active torsions:
REMARK  status: ('A' for Active; 'I' for Inactive)
REMARK    1  A    between atoms: C_1  and  C_26
REMARK    2  A    between atoms: C_6  and  C_11
REMARK    3  A    between atoms: C_11  and  N_14
REMARK    4  A    between atoms: C_24  and  C_35
REMARK    5  A    between atoms: C_40  and  C_42
REMARK    6  A    between atoms: C_42  and  C_47
REMARK    7  A    between atoms: C_47  and  C_50
REMARK                            x       y       z     vdW  Elec       q    Type
REMARK                         _______ _______ _______ _____ _____    ______ ____
ROOT
ATOM      1  C   UNL     1      30.154 113.442  90.238  0.00  0.00    +0.022 C 
ATOM      2  C   UNL     1      29.859 114.988  90.111  0.00  0.00    +0.027 C 
ATOM      3  C   UNL     1      31.118 115.819  90.423  0.00  0.00    +0.108 C 
ATOM      4  N   UNL     1      32.292 115.432  89.576  0.00  0.00    -0.297 N 
ATOM      5  C   UNL     1      32.845 116.326  88.644  0.00  0.00    +0.248 C 
ATOM      6  O   UNL     1      32.394 117.448  88.457  0.00  0.00    -0.270 OA
ATOM      7  C   UNL     1      32.648 114.010  89.820  0.00  0.00    +0.108 C 
ATOM      8  C   UNL     1      31.441 113.093  89.380  0.00  0.00    +0.027 C 
ENDROOT
BRANCH   1   9
ATOM      9  C   UNL     1      28.912 112.589  89.905  0.00  0.00    -0.044 A 
ATOM     10  C   UNL     1      27.946 112.327  90.965  0.00  0.00    +0.004 A 
ATOM     11  C   UNL     1      26.774 111.535  90.717  0.00  0.00    +0.000 A 
ATOM     12  C   UNL     1      26.526 110.983  89.427  0.00  0.00    +0.002 A 
ATOM     13  C   UNL     1      27.462 111.220  88.349  0.00  0.00    -0.065 A 
ATOM     14  C   UNL     1      28.653 112.022  88.596  0.00  0.00    +0.005 A 
BRANCH  13  15
ATOM     15  C   UNL     1      27.204 110.630  86.987  0.00  0.00    -0.051 C 
BRANCH  15  16
ATOM     16  N   UNL     1      26.812 109.188  87.006  0.00  0.00    +0.381 N 
ATOM     17  H   UNL     1      27.155 108.700  86.193  0.00  0.00    -0.090 HD
ATOM     18  H   UNL     1      25.806 109.084  87.000  0.00  0.00    -0.090 HD
ATOM     19  H   UNL     1      27.164 108.706  87.822  0.00  0.00    -0.090 HD
ENDBRANCH  15  16
ENDBRANCH  13  15
ENDBRANCH   1   9
BRANCH   5  20
ATOM     20  C   UNL     1      34.060 116.026  87.811  0.00  0.00    +0.055 A 
ATOM     21  C   UNL     1      33.994 116.042  86.389  0.00  0.00    +0.123 A 
ATOM     22  N   UNL     1      35.031 115.759  85.580  0.00  0.00    -0.262 NA
ATOM     23  C   UNL     1      36.213 115.427  86.129  0.00  0.00    +0.114 A 
ATOM     24  C   UNL     1      36.439 115.368  87.535  0.00  0.00    -0.028 A 
ATOM     25  C   UNL     1      35.320 115.680  88.408  0.00  0.00    +0.019 A 
BRANCH  24  26
ATOM     26  C   UNL     1      37.774 114.975  88.080  0.00  0.00    +0.041 C 
BRANCH  26  27
ATOM     27  C   UNL     1      38.086 115.622  89.423  0.00  0.00    +0.040 C 
BRANCH  27  28
ATOM     28  C   UNL     1      39.349 115.185  90.121  0.00  0.00    -0.047 A 
ATOM     29  C   UNL     1      39.361 113.948  90.899  0.00  0.00    +0.003 A 
ATOM     30  C   UNL     1      40.556 113.519  91.560  0.00  0.00    +0.000 A 
ATOM     31  C   UNL     1      41.778 114.300  91.475  0.00  0.00    +0.000 A 
ATOM     32  C   UNL     1      41.781 115.520  90.712  0.00  0.00    +0.000 A 
ATOM     33  C   UNL     1      40.558 115.958  90.035  0.00  0.00    +0.003 A 
ENDBRANCH  27  28
ENDBRANCH  26  27
ENDBRANCH  24  26
ENDBRANCH   5  20
TORSDOF 7
ENDMDL
