MODEL 1
REMARK VINA RESULT:      -8.4      0.000      0.000
REMARK  Name = LIGAND
REMARK  7 active torsions:
REMARK  status: ('A' for Active; 'I' for Inactive)
REMARK    1  A    between atoms: C_1  and  C_26
REMARK    2  A    between atoms: C_6  and  C_11
REMARK    3  A    between atoms: C_11  and  N_14
REMARK    4  A    between atoms: C_24  and  C_35
REMARK    5  A    between atoms: C_40  and  C_42
REMARK    6  A    between atoms: C_42  and  C_47
REMARK    7  A    between atoms: C_47  and  C_50
REMARK                            x       y       z     vdW  Elec       q    Type
REMARK                         _______ _______ _______ _____ _____    ______ ____
ROOT
ATOM      1  C   UNL     1      42.380 111.075  83.119  0.00  0.00    +0.022 C 
ATOM      2  C   UNL     1      41.286 110.519  82.124  0.00  0.00    +0.027 C 
ATOM      3  C   UNL     1      39.942 110.303  82.845  0.00  0.00    +0.108 C 
ATOM      4  N   UNL     1      39.451 111.538  83.537  0.00  0.00    -0.297 N 
ATOM      5  C   UNL     1      38.273 112.185  83.127  0.00  0.00    +0.248 C 
ATOM      6  O   UNL     1      37.601 111.795  82.181  0.00  0.00    -0.270 OA
ATOM      7  C   UNL     1      40.427 111.962  84.574  0.00  0.00    +0.108 C 
ATOM      8  C   UNL     1      41.791 112.338  83.874  0.00  0.00    +0.027 C 
ENDROOT
BRANCH   1   9
ATOM      9  C   UNL     1      43.729 111.323  82.412  0.00  0.00    -0.044 A 
ATOM     10  C   UNL     1      44.936 111.397  83.225  0.00  0.00    +0.004 A 
ATOM     11  C   UNL     1      46.218 111.631  82.625  0.00  0.00    +0.000 A 
ATOM     12  C   UNL     1      46.345 111.800  81.216  0.00  0.00    +0.002 A 
ATOM     13  C   UNL     1      45.170 111.734  80.374  0.00  0.00    -0.065 A 
ATOM     14  C   UNL     1      43.865 111.497  80.979  0.00  0.00    +0.005 A 
BRANCH  13  15
ATOM     15  C   UNL     1      45.302 111.918  78.884  0.00  0.00    -0.051 C 
BRANCH  15  16
ATOM     16  N   UNL     1      44.177 112.677  78.258  0.00  0.00    +0.381 N 
ATOM     17  H   UNL     1      43.864 113.432  78.849  0.00  0.00    -0.090 HD
ATOM     18  H   UNL     1      43.374 112.080  78.108  0.00  0.00    -0.090 HD
ATOM     19  H   UNL     1      44.433 113.074  77.365  0.00  0.00    -0.090 HD
ENDBRANCH  15  16
ENDBRANCH  13  15
ENDBRANCH   1   9
BRANCH   5  20
ATOM     20  C   UNL     1      37.690 113.387  83.816  0.00  0.00    +0.055 A 
ATOM     21  C   UNL     1      37.406 113.364  85.211  0.00  0.00    +0.123 A 
ATOM     22  N   UNL     1      36.861 114.391  85.889  0.00  0.00    -0.262 NA
ATOM     23  C   UNL     1      36.548 115.517  85.224  0.00  0.00    +0.114 A 
ATOM     24  C   UNL     1      36.773 115.695  83.827  0.00  0.00    -0.028 A 
ATOM     25  C   UNL     1      37.366 114.587  83.097  0.00  0.00    +0.019 A 
BRANCH  24  26
ATOM     26  C   UNL     1      36.384 116.966  83.146  0.00  0.00    +0.041 C 
BRANCH  26  27
ATOM     27  C   UNL     1      35.181 116.808  82.225  0.00  0.00    +0.040 C 
BRANCH  27  28
ATOM     28  C   UNL     1      33.973 116.099  82.786  0.00  0.00    -0.047 A 
ATOM     29  C   UNL     1      33.564 114.809  82.235  0.00  0.00    +0.003 A 
ATOM     30  C   UNL     1      32.424 114.123  82.765  0.00  0.00    +0.000 A 
ATOM     31  C   UNL     1      31.650 114.693  83.853  0.00  0.00    +0.000 A 
ATOM     32  C   UNL     1      32.041 115.963  84.406  0.00  0.00    +0.000 A 
ATOM     33  C   UNL     1      33.208 116.663  83.865  0.00  0.00    +0.003 A 
ENDBRANCH  27  28
ENDBRANCH  26  27
ENDBRANCH  24  26
ENDBRANCH   5  20
TORSDOF 7
ENDMDL
MODEL 2
REMARK VINA RESULT:      -7.7      4.867      7.796
REMARK  Name = LIGAND
REMARK  7 active torsions:
REMARK  status: ('A' for Active; 'I' for Inactive)
REMARK    1  A    between atoms: C_1  and  C_26
REMARK    2  A    between atoms: C_6  and  C_11
REMARK    3  A    between atoms: C_11  and  N_14
REMARK    4  A    between atoms: C_24  and  C_35
REMARK    5  A    between atoms: C_40  and  C_42
REMARK    6  A    between atoms: C_42  and  C_47
REMARK    7  A    between atoms: C_47  and  C_50
REMARK                            x       y       z     vdW  Elec       q    Type
REMARK                         _______ _______ _______ _____ _____    ______ ____
ROOT
ATOM      1  C   UNL     1      43.032 111.091  83.914  0.00  0.00    +0.022 C 
ATOM      2  C   UNL     1      41.720 111.838  83.448  0.00  0.00    +0.027 C 
ATOM      3  C   UNL     1      40.624 111.754  84.526  0.00  0.00    +0.108 C 
ATOM      4  N   UNL     1      41.081 112.267  85.858  0.00  0.00    -0.297 N 
ATOM      5  C   UNL     1      40.511 113.415  86.433  0.00  0.00    +0.248 C 
ATOM      6  O   UNL     1      39.637 114.067  85.877  0.00  0.00    -0.270 OA
ATOM      7  C   UNL     1      42.224 111.455  86.349  0.00  0.00    +0.108 C 
ATOM      8  C   UNL     1      43.437 111.617  85.353  0.00  0.00    +0.027 C 
ENDROOT
BRANCH   1   9
ATOM      9  C   UNL     1      44.154 111.184  82.858  0.00  0.00    -0.044 A 
ATOM     10  C   UNL     1      45.513 110.840  83.257  0.00  0.00    +0.004 A 
ATOM     11  C   UNL     1      46.598 110.913  82.321  0.00  0.00    +0.000 A 
ATOM     12  C   UNL     1      46.375 111.325  80.975  0.00  0.00    +0.002 A 
ATOM     13  C   UNL     1      45.040 111.674  80.540  0.00  0.00    -0.065 A 
ATOM     14  C   UNL     1      43.935 111.603  81.488  0.00  0.00    +0.005 A 
BRANCH  13  15
ATOM     15  C   UNL     1      44.804 112.116  79.119  0.00  0.00    -0.051 C 
BRANCH  15  16
ATOM     16  N   UNL     1      44.905 111.018  78.110  0.00  0.00    +0.381 N 
ATOM     17  H   UNL     1      44.253 111.151  77.352  0.00  0.00    -0.090 HD
ATOM     18  H   UNL     1      44.683 110.122  78.525  0.00  0.00    -0.090 HD
ATOM     19  H   UNL     1      45.829 110.948  77.710  0.00  0.00    -0.090 HD
ENDBRANCH  15  16
ENDBRANCH  13  15
ENDBRANCH   1   9
BRANCH   5  20
ATOM     20  C   UNL     1      40.877 113.945  87.791  0.00  0.00    +0.055 A 
ATOM     21  C   UNL     1      41.276 115.300  87.965  0.00  0.00    +0.123 A 
ATOM     22  N   UNL     1      41.641 115.836  89.144  0.00  0.00    -0.262 NA
ATOM     23  C   UNL     1      41.646 115.056  90.240  0.00  0.00    +0.114 A 
ATOM     24  C   UNL     1      41.271 113.681  90.229  0.00  0.00    -0.028 A 
ATOM     25  C   UNL     1      40.871 113.104  88.956  0.00  0.00    +0.019 A 
BRANCH  24  26
ATOM     26  C   UNL     1      41.317 112.866  91.481  0.00  0.00    +0.041 C 
BRANCH  26  27
ATOM     27  C   UNL     1      42.674 112.215  91.721  0.00  0.00    +0.040 C 
BRANCH  27  28
ATOM     28  C   UNL     1      42.800 110.748  91.396  0.00  0.00    -0.047 A 
ATOM     29  C   UNL     1      41.599 109.929  91.244  0.00  0.00    +0.003 A 
ATOM     30  C   UNL     1      41.705 108.537  90.927  0.00  0.00    +0.000 A 
ATOM     31  C   UNL     1      43.003 107.908  90.755  0.00  0.00    +0.000 A 
ATOM     32  C   UNL     1      44.195 108.702  90.901  0.00  0.00    +0.000 A 
ATOM     33  C   UNL     1      44.085 110.127  91.223  0.00  0.00    +0.003 A 
ENDBRANCH  27  28
ENDBRANCH  26  27
ENDBRANCH  24  26
ENDBRANCH   5  20
TORSDOF 7
ENDMDL
MODEL 3
REMARK VINA RESULT:      -7.6      3.428      4.427
REMARK  Name = LIGAND
REMARK  7 active torsions:
REMARK  status: ('A' for Active; 'I' for Inactive)
REMARK    1  A    between atoms: C_1  and  C_26
REMARK    2  A    between atoms: C_6  and  C_11
REMARK    3  A    between atoms: C_11  and  N_14
REMARK    4  A    between atoms: C_24  and  C_35
REMARK    5  A    between atoms: C_40  and  C_42
REMARK    6  A    between atoms: C_42  and  C_47
REMARK    7  A    between atoms: C_47  and  C_50
REMARK                            x       y       z     vdW  Elec       q    Type
REMARK                         _______ _______ _______ _____ _____    ______ ____
ROOT
ATOM      1  C   UNL     1      43.439 112.093  85.775  0.00  0.00    +0.022 C 
ATOM      2  C   UNL     1      43.043 111.009  86.853  0.00  0.00    +0.027 C 
ATOM      3  C   UNL     1      42.844 111.653  88.238  0.00  0.00    +0.108 C 
ATOM      4  N   UNL     1      41.846 112.769  88.219  0.00  0.00    -0.297 N 
ATOM      5  C   UNL     1      40.631 112.674  88.918  0.00  0.00    +0.248 C 
ATOM      6  O   UNL     1      40.312 111.679  89.555  0.00  0.00    -0.270 OA
ATOM      7  C   UNL     1      42.309 113.849  87.310  0.00  0.00    +0.108 C 
ATOM      8  C   UNL     1      42.394 113.284  85.839  0.00  0.00    +0.027 C 
ENDROOT
BRANCH   1   9
ATOM      9  C   UNL     1      43.619 111.473  84.373  0.00  0.00    -0.044 A 
ATOM     10  C   UNL     1      42.520 110.701  83.809  0.00  0.00    +0.004 A 
ATOM     11  C   UNL     1      42.631 110.095  82.512  0.00  0.00    +0.000 A 
ATOM     12  C   UNL     1      43.822 110.233  81.742  0.00  0.00    +0.002 A 
ATOM     13  C   UNL     1      44.937 110.991  82.269  0.00  0.00    -0.065 A 
ATOM     14  C   UNL     1      44.829 111.607  83.585  0.00  0.00    +0.005 A 
BRANCH  13  15
ATOM     15  C   UNL     1      46.199 111.131  81.458  0.00  0.00    -0.051 C 
BRANCH  15  16
ATOM     16  N   UNL     1      46.201 112.295  80.520  0.00  0.00    +0.381 N 
ATOM     17  H   UNL     1      47.043 112.843  80.611  0.00  0.00    -0.090 HD
ATOM     18  H   UNL     1      45.430 112.919  80.714  0.00  0.00    -0.090 HD
ATOM     19  H   UNL     1      46.126 112.009  79.554  0.00  0.00    -0.090 HD
ENDBRANCH  15  16
ENDBRANCH  13  15
ENDBRANCH   1   9
BRANCH   5  20
ATOM     20  C   UNL     1      39.615 113.780  88.994  0.00  0.00    +0.055 A 
ATOM     21  C   UNL     1      39.713 114.795  89.987  0.00  0.00    +0.123 A 
ATOM     22  N   UNL     1      38.829 115.799  90.132  0.00  0.00    -0.262 NA
ATOM     23  C   UNL     1      37.773 115.861  89.302  0.00  0.00    +0.114 A 
ATOM     24  C   UNL     1      37.537 114.922  88.257  0.00  0.00    -0.028 A 
ATOM     25  C   UNL     1      38.495 113.841  88.097  0.00  0.00    +0.019 A 
BRANCH  24  26
ATOM     26  C   UNL     1      36.332 115.039  87.380  0.00  0.00    +0.041 C 
BRANCH  26  27
ATOM     27  C   UNL     1      35.482 116.264  87.694  0.00  0.00    +0.040 C 
BRANCH  27  28
ATOM     28  C   UNL     1      34.093 116.307  87.107  0.00  0.00    -0.047 A 
ATOM     29  C   UNL     1      32.959 116.684  87.948  0.00  0.00    +0.003 A 
ATOM     30  C   UNL     1      31.637 116.736  87.401  0.00  0.00    +0.000 A 
ATOM     31  C   UNL     1      31.393 116.413  86.006  0.00  0.00    +0.000 A 
ATOM     32  C   UNL     1      32.501 116.040  85.166  0.00  0.00    +0.000 A 
ATOM     33  C   UNL     1      33.853 115.989  85.726  0.00  0.00    +0.003 A 
ENDBRANCH  27  28
ENDBRANCH  26  27
ENDBRANCH  24  26
ENDBRANCH   5  20
TORSDOF 7
ENDMDL
MODEL 4
REMARK VINA RESULT:      -7.5      6.663     11.966
REMARK  Name = LIGAND
REMARK  7 active torsions:
REMARK  status: ('A' for Active; 'I' for Inactive)
REMARK    1  A    between atoms: C_1  and  C_26
REMARK    2  A    between atoms: C_6  and  C_11
REMARK    3  A    between atoms: C_11  and  N_14
REMARK    4  A    between atoms: C_24  and  C_35
REMARK    5  A    between atoms: C_40  and  C_42
REMARK    6  A    between atoms: C_42  and  C_47
REMARK    7  A    between atoms: C_47  and  C_50
REMARK                            x       y       z     vdW  Elec       q    Type
REMARK                         _______ _______ _______ _____ _____    ______ ____
ROOT
ATOM      1  C   UNL     1      30.218 113.447  90.190  0.00  0.00    +0.022 C 
ATOM      2  C   UNL     1      29.927 114.999  90.179  0.00  0.00    +0.027 C 
ATOM      3  C   UNL     1      31.216 115.805  90.427  0.00  0.00    +0.108 C 
ATOM      4  N   UNL     1      32.309 115.463  89.461  0.00  0.00    -0.297 N 
ATOM      5  C   UNL     1      32.787 116.408  88.537  0.00  0.00    +0.248 C 
ATOM      6  O   UNL     1      32.332 117.540  88.455  0.00  0.00    -0.270 OA
ATOM      7  C   UNL     1      32.672 114.029  89.591  0.00  0.00    +0.108 C 
ATOM      8  C   UNL     1      31.423 113.144  89.205  0.00  0.00    +0.027 C 
ENDROOT
BRANCH   1   9
ATOM      9  C   UNL     1      28.944 112.620  89.918  0.00  0.00    -0.044 A 
ATOM     10  C   UNL     1      28.051 112.332  91.034  0.00  0.00    +0.004 A 
ATOM     11  C   UNL     1      26.855 111.563  90.844  0.00  0.00    +0.000 A 
ATOM     12  C   UNL     1      26.508 111.058  89.557  0.00  0.00    +0.002 A 
ATOM     13  C   UNL     1      27.370 111.321  88.424  0.00  0.00    -0.065 A 
ATOM     14  C   UNL     1      28.586 112.101  88.613  0.00  0.00    +0.005 A 
BRANCH  13  15
ATOM     15  C   UNL     1      27.008 110.782  87.065  0.00  0.00    -0.051 C 
BRANCH  15  16
ATOM     16  N   UNL     1      25.973 111.583  86.342  0.00  0.00    +0.381 N 
ATOM     17  H   UNL     1      25.657 112.365  86.895  0.00  0.00    -0.090 HD
ATOM     18  H   UNL     1      25.155 111.024  86.140  0.00  0.00    -0.090 HD
ATOM     19  H   UNL     1      26.316 111.949  85.465  0.00  0.00    -0.090 HD
ENDBRANCH  15  16
ENDBRANCH  13  15
ENDBRANCH   1   9
BRANCH   5  20
ATOM     20  C   UNL     1      33.923 116.152  87.585  0.00  0.00    +0.055 A 
ATOM     21  C   UNL     1      35.265 116.072  88.052  0.00  0.00    +0.123 A 
ATOM     22  N   UNL     1      36.333 115.872  87.257  0.00  0.00    -0.262 NA
ATOM     23  C   UNL     1      36.142 115.746  85.932  0.00  0.00    +0.114 A 
ATOM     24  C   UNL     1      34.860 115.801  85.312  0.00  0.00    -0.028 A 
ATOM     25  C   UNL     1      33.707 116.011  86.172  0.00  0.00    +0.019 A 
BRANCH  24  26
ATOM     26  C   UNL     1      34.721 115.671  83.830  0.00  0.00    +0.041 C 
BRANCH  26  27
ATOM     27  C   UNL     1      33.984 114.406  83.407  0.00  0.00    +0.040 C 
BRANCH  27  28
ATOM     28  C   UNL     1      34.083 114.004  81.957  0.00  0.00    -0.047 A 
ATOM     29  C   UNL     1      34.948 112.892  81.566  0.00  0.00    +0.003 A 
ATOM     30  C   UNL     1      35.044 112.497  80.194  0.00  0.00    +0.000 A 
ATOM     31  C   UNL     1      34.291 113.189  79.163  0.00  0.00    +0.000 A 
ATOM     32  C   UNL     1      33.435 114.285  79.532  0.00  0.00    +0.000 A 
ATOM     33  C   UNL     1      33.336 114.688  80.937  0.00  0.00    +0.003 A 
ENDBRANCH  27  28
ENDBRANCH  26  27
ENDBRANCH  24  26
ENDBRANCH   5  20
TORSDOF 7
ENDMDL
MODEL 5
REMARK VINA RESULT:      -7.5      5.793      8.718
REMARK  Name = LIGAND
REMARK  7 active torsions:
REMARK  status: ('A' for Active; 'I' for Inactive)
REMARK    1  A    between atoms: C_1  and  C_26
REMARK    2  A    between atoms: C_6  and  C_11
REMARK    3  A    between atoms: C_11  and  N_14
REMARK    4  A    between atoms: C_24  and  C_35
REMARK    5  A    between atoms: C_40  and  C_42
REMARK    6  A    between atoms: C_42  and  C_47
REMARK    7  A    between atoms: C_47  and  C_50
REMARK                            x       y       z     vdW  Elec       q    Type
REMARK                         _______ _______ _______ _____ _____    ______ ____
ROOT
ATOM      1  C   UNL     1      34.749 114.914  81.874  0.00  0.00    +0.022 C 
ATOM      2  C   UNL     1      35.942 114.987  82.907  0.00  0.00    +0.027 C 
ATOM      3  C   UNL     1      35.723 116.122  83.925  0.00  0.00    +0.108 C 
ATOM      4  N   UNL     1      34.410 116.016  84.638  0.00  0.00    -0.297 N 
ATOM      5  C   UNL     1      34.348 115.775  86.021  0.00  0.00    +0.248 C 
ATOM      6  O   UNL     1      35.348 115.620  86.709  0.00  0.00    -0.270 OA
ATOM      7  C   UNL     1      33.293 116.098  83.662  0.00  0.00    +0.108 C 
ATOM      8  C   UNL     1      33.381 114.871  82.673  0.00  0.00    +0.027 C 
ENDROOT
BRANCH   1   9
ATOM      9  C   UNL     1      34.935 113.766  80.859  0.00  0.00    -0.044 A 
ATOM     10  C   UNL     1      35.941 112.749  81.138  0.00  0.00    +0.004 A 
ATOM     11  C   UNL     1      36.164 111.662  80.228  0.00  0.00    +0.000 A 
ATOM     12  C   UNL     1      35.407 111.548  79.026  0.00  0.00    +0.002 A 
ATOM     13  C   UNL     1      34.399 112.539  78.713  0.00  0.00    -0.065 A 
ATOM     14  C   UNL     1      34.170 113.646  79.633  0.00  0.00    +0.005 A 
BRANCH  13  15
ATOM     15  C   UNL     1      33.604 112.424  77.439  0.00  0.00    -0.051 C 
BRANCH  15  16
ATOM     16  N   UNL     1      34.359 112.808  76.207  0.00  0.00    +0.381 N 
ATOM     17  H   UNL     1      34.904 112.037  75.852  0.00  0.00    -0.090 HD
ATOM     18  H   UNL     1      35.011 113.556  76.399  0.00  0.00    -0.090 HD
ATOM     19  H   UNL     1      33.748 113.118  75.465  0.00  0.00    -0.090 HD
ENDBRANCH  15  16
ENDBRANCH  13  15
ENDBRANCH   1   9
BRANCH   5  20
ATOM     20  C   UNL     1      33.069 115.722  86.809  0.00  0.00    +0.055 A 
ATOM     21  C   UNL     1      32.573 116.877  87.478  0.00  0.00    +0.123 A 
ATOM     22  N   UNL     1      31.451 116.897  88.221  0.00  0.00    -0.262 NA
ATOM     23  C   UNL     1      30.743 115.763  88.362  0.00  0.00    +0.114 A 
ATOM     24  C   UNL     1      31.108 114.526  87.753  0.00  0.00    -0.028 A 
ATOM     25  C   UNL     1      32.316 114.506  86.946  0.00  0.00    +0.019 A 
BRANCH  24  26
ATOM     26  C   UNL     1      30.285 113.297  87.966  0.00  0.00    +0.041 C 
BRANCH  26  27
ATOM     27  C   UNL     1      29.817 113.133  89.407  0.00  0.00    +0.040 C 
BRANCH  27  28
ATOM     28  C   UNL     1      28.609 112.262  89.643  0.00  0.00    -0.047 A 
ATOM     29  C   UNL     1      27.918 112.308  90.930  0.00  0.00    +0.003 A 
ATOM     30  C   UNL     1      26.766 111.491  91.164  0.00  0.00    +0.000 A 
ATOM     31  C   UNL     1      26.261 110.600  90.134  0.00  0.00    +0.000 A 
ATOM     32  C   UNL     1      26.931 110.545  88.861  0.00  0.00    +0.000 A 
ATOM     33  C   UNL     1      28.109 111.382  88.622  0.00  0.00    +0.003 A 
ENDBRANCH  27  28
ENDBRANCH  26  27
ENDBRANCH  24  26
ENDBRANCH   5  20
TORSDOF 7
ENDMDL
MODEL 6
REMARK VINA RESULT:      -7.4      7.992     10.560
REMARK  Name = LIGAND
REMARK  7 active torsions:
REMARK  status: ('A' for Active; 'I' for Inactive)
REMARK    1  A    between atoms: C_1  and  C_26
REMARK    2  A    between atoms: C_6  and  C_11
REMARK    3  A    between atoms: C_11  and  N_14
REMARK    4  A    between atoms: C_24  and  C_35
REMARK    5  A    between atoms: C_40  and  C_42
REMARK    6  A    between atoms: C_42  and  C_47
REMARK    7  A    between atoms: C_47  and  C_50
REMARK                            x       y       z     vdW  Elec       q    Type
REMARK                         _______ _______ _______ _____ _____    ______ ____
ROOT
ATOM      1  C   UNL     1      43.875 108.636  91.106  0.00  0.00    +0.022 C 
ATOM      2  C   UNL     1      45.014 108.327  90.056  0.00  0.00    +0.027 C 
ATOM      3  C   UNL     1      44.428 108.135  88.644  0.00  0.00    +0.108 C 
ATOM      4  N   UNL     1      43.599 109.301  88.199  0.00  0.00    -0.297 N 
ATOM      5  C   UNL     1      43.991 110.103  87.114  0.00  0.00    +0.248 C 
ATOM      6  O   UNL     1      45.028 109.912  86.493  0.00  0.00    -0.270 OA
ATOM      7  C   UNL     1      42.445 109.484  89.117  0.00  0.00    +0.108 C 
ATOM      8  C   UNL     1      42.985 109.829  90.560  0.00  0.00    +0.027 C 
ENDROOT
BRANCH   1   9
ATOM      9  C   UNL     1      44.442 108.856  92.524  0.00  0.00    -0.044 A 
ATOM     10  C   UNL     1      43.924 109.965  93.315  0.00  0.00    +0.004 A 
ATOM     11  C   UNL     1      44.417 110.223  94.637  0.00  0.00    +0.000 A 
ATOM     12  C   UNL     1      45.429 109.401  95.213  0.00  0.00    +0.002 A 
ATOM     13  C   UNL     1      45.970 108.290  94.459  0.00  0.00    -0.065 A 
ATOM     14  C   UNL     1      45.473 108.025  93.115  0.00  0.00    +0.005 A 
BRANCH  13  15
ATOM     15  C   UNL     1      47.044 107.425  95.064  0.00  0.00    -0.051 C 
BRANCH  15  16
ATOM     16  N   UNL     1      47.858 108.104  96.118  0.00  0.00    +0.381 N 
ATOM     17  H   UNL     1      48.638 107.534  96.408  0.00  0.00    -0.090 HD
ATOM     18  H   UNL     1      47.306 108.277  96.948  0.00  0.00    -0.090 HD
ATOM     19  H   UNL     1      48.227 108.990  95.806  0.00  0.00    -0.090 HD
ENDBRANCH  15  16
ENDBRANCH  13  15
ENDBRANCH   1   9
BRANCH   5  20
ATOM     20  C   UNL     1      43.175 111.245  86.575  0.00  0.00    +0.055 A 
ATOM     21  C   UNL     1      42.811 111.299  85.200  0.00  0.00    +0.123 A 
ATOM     22  N   UNL     1      42.106 112.301  84.642  0.00  0.00    -0.262 NA
ATOM     23  C   UNL     1      41.719 113.332  85.414  0.00  0.00    +0.114 A 
ATOM     24  C   UNL     1      42.004 113.422  86.808  0.00  0.00    -0.028 A 
ATOM     25  C   UNL     1      42.760 112.338  87.411  0.00  0.00    +0.019 A 
BRANCH  24  26
ATOM     26  C   UNL     1      41.558 114.606  87.604  0.00  0.00    +0.041 C 
BRANCH  26  27
ATOM     27  C   UNL     1      40.693 114.230  88.801  0.00  0.00    +0.040 C 
BRANCH  27  28
ATOM     28  C   UNL     1      41.292 114.426  90.172  0.00  0.00    -0.047 A 
ATOM     29  C   UNL     1      41.266 115.748  90.795  0.00  0.00    +0.003 A 
ATOM     30  C   UNL     1      41.823 115.946  92.099  0.00  0.00    +0.000 A 
ATOM     31  C   UNL     1      42.427 114.844  92.827  0.00  0.00    +0.000 A 
ATOM     32  C   UNL     1      42.460 113.536  92.226  0.00  0.00    +0.000 A 
ATOM     33  C   UNL     1      41.887 113.335  90.892  0.00  0.00    +0.003 A 
ENDBRANCH  27  28
ENDBRANCH  26  27
ENDBRANCH  24  26
ENDBRANCH   5  20
TORSDOF 7
ENDMDL
MODEL 7
REMARK VINA RESULT:      -7.4      2.038      2.823
REMARK  Name = LIGAND
REMARK  7 active torsions:
REMARK  status: ('A' for Active; 'I' for Inactive)
REMARK    1  A    between atoms: C_1  and  C_26
REMARK    2  A    between atoms: C_6  and  C_11
REMARK    3  A    between atoms: C_11  and  N_14
REMARK    4  A    between atoms: C_24  and  C_35
REMARK    5  A    between atoms: C_40  and  C_42
REMARK    6  A    between atoms: C_42  and  C_47
REMARK    7  A    between atoms: C_47  and  C_50
REMARK                            x       y       z     vdW  Elec       q    Type
REMARK                         _______ _______ _______ _____ _____    ______ ____
ROOT
ATOM      1  C   UNL     1      41.889 110.777  83.065  0.00  0.00    +0.022 C 
ATOM      2  C   UNL     1      40.767 110.418  82.013  0.00  0.00    +0.027 C 
ATOM      3  C   UNL     1      39.396 110.265  82.697  0.00  0.00    +0.108 C 
ATOM      4  N   UNL     1      39.008 111.474  83.492  0.00  0.00    -0.297 N 
ATOM      5  C   UNL     1      37.903 112.263  83.130  0.00  0.00    +0.248 C 
ATOM      6  O   UNL     1      37.216 112.024  82.146  0.00  0.00    -0.270 OA
ATOM      7  C   UNL     1      40.000 111.710  84.574  0.00  0.00    +0.108 C 
ATOM      8  C   UNL     1      41.406 112.017  83.926  0.00  0.00    +0.027 C 
ENDROOT
BRANCH   1   9
ATOM      9  C   UNL     1      43.269 110.959  82.397  0.00  0.00    -0.044 A 
ATOM     10  C   UNL     1      44.464 110.710  83.195  0.00  0.00    +0.004 A 
ATOM     11  C   UNL     1      45.774 110.868  82.631  0.00  0.00    +0.000 A 
ATOM     12  C   UNL     1      45.941 111.275  81.275  0.00  0.00    +0.002 A 
ATOM     13  C   UNL     1      44.779 111.532  80.452  0.00  0.00    -0.065 A 
ATOM     14  C   UNL     1      43.447 111.374  81.020  0.00  0.00    +0.005 A 
BRANCH  13  15
ATOM     15  C   UNL     1      44.955 111.968  79.020  0.00  0.00    -0.051 C 
BRANCH  15  16
ATOM     16  N   UNL     1      46.373 112.233  78.629  0.00  0.00    +0.381 N 
ATOM     17  H   UNL     1      46.596 111.814  77.739  0.00  0.00    -0.090 HD
ATOM     18  H   UNL     1      47.016 111.836  79.301  0.00  0.00    -0.090 HD
ATOM     19  H   UNL     1      46.574 113.220  78.561  0.00  0.00    -0.090 HD
ENDBRANCH  15  16
ENDBRANCH  13  15
ENDBRANCH   1   9
BRANCH   5  20
ATOM     20  C   UNL     1      37.422 113.449  83.919  0.00  0.00    +0.055 A 
ATOM     21  C   UNL     1      37.437 114.756  83.358  0.00  0.00    +0.123 A 
ATOM     22  N   UNL     1      37.047 115.866  84.012  0.00  0.00    -0.262 NA
ATOM     23  C   UNL     1      36.621 115.755  85.283  0.00  0.00    +0.114 A 
ATOM     24  C   UNL     1      36.545 114.516  85.983  0.00  0.00    -0.028 A 
ATOM     25  C   UNL     1      36.961 113.318  85.274  0.00  0.00    +0.019 A 
BRANCH  24  26
ATOM     26  C   UNL     1      36.078 114.466  87.402  0.00  0.00    +0.041 C 
BRANCH  26  27
ATOM     27  C   UNL     1      34.745 113.747  87.567  0.00  0.00    +0.040 C 
BRANCH  27  28
ATOM     28  C   UNL     1      33.503 114.602  87.615  0.00  0.00    -0.047 A 
ATOM     29  C   UNL     1      33.615 116.035  87.880  0.00  0.00    +0.003 A 
ATOM     30  C   UNL     1      32.444 116.858  87.920  0.00  0.00    +0.000 A 
ATOM     31  C   UNL     1      31.125 116.291  87.702  0.00  0.00    +0.000 A 
ATOM     32  C   UNL     1      30.999 114.881  87.439  0.00  0.00    +0.000 A 
ATOM     33  C   UNL     1      32.198 114.040  87.397  0.00  0.00    +0.003 A 
ENDBRANCH  27  28
ENDBRANCH  26  27
ENDBRANCH  24  26
ENDBRANCH   5  20
TORSDOF 7
ENDMDL
MODEL 8
REMARK VINA RESULT:      -7.2      6.489      8.211
REMARK  Name = LIGAND
REMARK  7 active torsions:
REMARK  status: ('A' for Active; 'I' for Inactive)
REMARK    1  A    between atoms: C_1  and  C_26
REMARK    2  A    between atoms: C_6  and  C_11
REMARK    3  A    between atoms: C_11  and  N_14
REMARK    4  A    between atoms: C_24  and  C_35
REMARK    5  A    between atoms: C_40  and  C_42
REMARK    6  A    between atoms: C_42  and  C_47
REMARK    7  A    between atoms: C_47  and  C_50
REMARK                            x       y       z     vdW  Elec       q    Type
REMARK                         _______ _______ _______ _____ _____    ______ ____
ROOT
ATOM      1  C   UNL     1      44.210 110.823  85.386  0.00  0.00    +0.022 C 
ATOM      2  C   UNL     1      44.664 109.348  85.723  0.00  0.00    +0.027 C 
ATOM      3  C   UNL     1      44.774 109.137  87.245  0.00  0.00    +0.108 C 
ATOM      4  N   UNL     1      43.508 109.480  87.970  0.00  0.00    -0.297 N 
ATOM      5  C   UNL     1      42.762 108.497  88.641  0.00  0.00    +0.248 C 
ATOM      6  O   UNL     1      43.087 107.317  88.655  0.00  0.00    -0.270 OA
ATOM      7  C   UNL     1      43.176 110.913  87.761  0.00  0.00    +0.108 C 
ATOM      8  C   UNL     1      42.909 111.163  86.226  0.00  0.00    +0.027 C 
ENDROOT
BRANCH   1   9
ATOM      9  C   UNL     1      44.069 111.050  83.866  0.00  0.00    -0.044 A 
ATOM     10  C   UNL     1      42.736 111.008  83.279  0.00  0.00    +0.004 A 
ATOM     11  C   UNL     1      42.543 111.206  81.870  0.00  0.00    +0.000 A 
ATOM     12  C   UNL     1      43.652 111.447  81.008  0.00  0.00    +0.002 A 
ATOM     13  C   UNL     1      44.992 111.496  81.554  0.00  0.00    -0.065 A 
ATOM     14  C   UNL     1      45.192 111.294  82.984  0.00  0.00    +0.005 A 
BRANCH  13  15
ATOM     15  C   UNL     1      46.165 111.744  80.643  0.00  0.00    -0.051 C 
BRANCH  15  16
ATOM     16  N   UNL     1      45.851 111.612  79.187  0.00  0.00    +0.381 N 
ATOM     17  H   UNL     1      45.170 110.887  79.019  0.00  0.00    -0.090 HD
ATOM     18  H   UNL     1      46.675 111.359  78.659  0.00  0.00    -0.090 HD
ATOM     19  H   UNL     1      45.488 112.469  78.794  0.00  0.00    -0.090 HD
ENDBRANCH  15  16
ENDBRANCH  13  15
ENDBRANCH   1   9
BRANCH   5  20
ATOM     20  C   UNL     1      41.521 108.783  89.441  0.00  0.00    +0.055 A 
ATOM     21  C   UNL     1      40.262 108.242  89.056  0.00  0.00    +0.123 A 
ATOM     22  N   UNL     1      39.108 108.476  89.707  0.00  0.00    -0.262 NA
ATOM     23  C   UNL     1      39.120 109.277  90.787  0.00  0.00    +0.114 A 
ATOM     24  C   UNL     1      40.300 109.892  91.297  0.00  0.00    -0.028 A 
ATOM     25  C   UNL     1      41.548 109.635  90.597  0.00  0.00    +0.019 A 
BRANCH  24  26
ATOM     26  C   UNL     1      40.240 110.788  92.492  0.00  0.00    +0.041 C 
BRANCH  26  27
ATOM     27  C   UNL     1      41.488 111.646  92.659  0.00  0.00    +0.040 C 
BRANCH  27  28
ATOM     28  C   UNL     1      41.358 113.117  92.356  0.00  0.00    -0.047 A 
ATOM     29  C   UNL     1      40.229 113.600  91.562  0.00  0.00    +0.003 A 
ATOM     30  C   UNL     1      40.090 114.995  91.274  0.00  0.00    +0.000 A 
ATOM     31  C   UNL     1      41.063 115.958  91.758  0.00  0.00    +0.000 A 
ATOM     32  C   UNL     1      42.179 115.498  92.542  0.00  0.00    +0.000 A 
ATOM     33  C   UNL     1      42.320 114.070  92.837  0.00  0.00    +0.003 A 
ENDBRANCH  27  28
ENDBRANCH  26  27
ENDBRANCH  24  26
ENDBRANCH   5  20
TORSDOF 7
ENDMDL
MODEL 9
REMARK VINA RESULT:      -7.1     10.803     14.881
REMARK  Name = LIGAND
REMARK  7 active torsions:
REMARK  status: ('A' for Active; 'I' for Inactive)
REMARK    1  A    between atoms: C_1  and  C_26
REMARK    2  A    between atoms: C_6  and  C_11
REMARK    3  A    between atoms: C_11  and  N_14
REMARK    4  A    between atoms: C_24  and  C_35
REMARK    5  A    between atoms: C_40  and  C_42
REMARK    6  A    between atoms: C_42  and  C_47
REMARK    7  A    between atoms: C_47  and  C_50
REMARK                            x       y       z     vdW  Elec       q    Type
REMARK                         _______ _______ _______ _____ _____    ______ ____
ROOT
ATOM      1  C   UNL     1      41.225 111.945  91.920  0.00  0.00    +0.022 C 
ATOM      2  C   UNL     1      40.240 111.222  92.921  0.00  0.00    +0.027 C 
ATOM      3  C   UNL     1      40.861 109.921  93.465  0.00  0.00    +0.108 C 
ATOM      4  N   UNL     1      42.198 110.140  94.103  0.00  0.00    -0.297 N 
ATOM      5  C   UNL     1      42.394 109.926  95.478  0.00  0.00    +0.248 C 
ATOM      6  O   UNL     1      41.493 109.574  96.226  0.00  0.00    -0.270 OA
ATOM      7  C   UNL     1      43.155 110.684  93.105  0.00  0.00    +0.108 C 
ATOM      8  C   UNL     1      42.643 112.094  92.614  0.00  0.00    +0.027 C 
ENDROOT
BRANCH   1   9
ATOM      9  C   UNL     1      40.633 113.265  91.381  0.00  0.00    -0.044 A 
ATOM     10  C   UNL     1      41.107 114.521  91.949  0.00  0.00    +0.004 A 
ATOM     11  C   UNL     1      40.590 115.779  91.493  0.00  0.00    +0.000 A 
ATOM     12  C   UNL     1      39.596 115.834  90.473  0.00  0.00    +0.002 A 
ATOM     13  C   UNL     1      39.099 114.608  89.886  0.00  0.00    -0.065 A 
ATOM     14  C   UNL     1      39.621 113.328  90.346  0.00  0.00    +0.005 A 
BRANCH  13  15
ATOM     15  C   UNL     1      38.043 114.664  88.812  0.00  0.00    -0.051 C 
BRANCH  15  16
ATOM     16  N   UNL     1      36.842 115.478  89.174  0.00  0.00    +0.381 N 
ATOM     17  H   UNL     1      36.931 116.431  88.855  0.00  0.00    -0.090 HD
ATOM     18  H   UNL     1      36.722 115.522  90.177  0.00  0.00    -0.090 HD
ATOM     19  H   UNL     1      35.992 115.101  88.780  0.00  0.00    -0.090 HD
ENDBRANCH  15  16
ENDBRANCH  13  15
ENDBRANCH   1   9
BRANCH   5  20
ATOM     20  C   UNL     1      43.723 110.064  96.169  0.00  0.00    +0.055 A 
ATOM     21  C   UNL     1      44.197 111.337  96.595  0.00  0.00    +0.123 A 
ATOM     22  N   UNL     1      45.384 111.540  97.195  0.00  0.00    -0.262 NA
ATOM     23  C   UNL     1      46.195 110.488  97.406  0.00  0.00    +0.114 A 
ATOM     24  C   UNL     1      45.862 109.152  97.039  0.00  0.00    -0.028 A 
ATOM     25  C   UNL     1      44.577 108.932  96.396  0.00  0.00    +0.019 A 
BRANCH  24  26
ATOM     26  C   UNL     1      46.818 108.030  97.286  0.00  0.00    +0.041 C 
BRANCH  26  27
ATOM     27  C   UNL     1      47.636 107.659  96.056  0.00  0.00    +0.040 C 
BRANCH  27  28
ATOM     28  C   UNL     1      46.994 106.727  95.058  0.00  0.00    -0.047 A 
ATOM     29  C   UNL     1      46.870 105.303  95.368  0.00  0.00    +0.003 A 
ATOM     30  C   UNL     1      46.255 104.410  94.433  0.00  0.00    +0.000 A 
ATOM     31  C   UNL     1      45.748 104.893  93.161  0.00  0.00    +0.000 A 
ATOM     32  C   UNL     1      45.863 106.292  92.843  0.00  0.00    +0.000 A 
ATOM     33  C   UNL     1      46.490 107.206  93.801  0.00  0.00    +0.003 A 
ENDBRANCH  27  28
ENDBRANCH  26  27
ENDBRANCH  24  26
ENDBRANCH   5  20
TORSDOF 7
ENDMDL
