MODEL 1
REMARK VINA RESULT:      -8.0      0.000      0.000
REMARK  Name = 1u1b_ligand
REMARK  17 active torsions:
REMARK  status: ('A' for Active; 'I' for Inactive)
REMARK    1  A    between atoms: PA_1  and  O5_4
REMARK    2  A    between atoms: PA_1  and  O3A_8
REMARK    3  A    between atoms: O5_4  and  C5_23
REMARK    4  A    between atoms: PB_5  and  O3A_8
REMARK    5  A    between atoms: PB_5  and  O3_38
REMARK    6  A    between atoms: PG_9  and  O3_30
REMARK    7  A    between atoms: N9A_13  and  C1_26
REMARK    8  A    between atoms: C6A_18  and  N6A_19
REMARK    9  A    between atoms: C5_23  and  C4_24
REMARK   10  A    between atoms: C2_27  and  O2_28
REMARK   11  A    between atoms: C3_29  and  O3_30
REMARK   12  A    between atoms: O5_31  and  C5_32
REMARK   13  A    between atoms: O5_31  and  PD_39
REMARK   14  A    between atoms: C5_32  and  C4_33
REMARK   15  A    between atoms: C1_35  and  N1T_43
REMARK   16  A    between atoms: C3_37  and  O3_38
REMARK   17  A    between atoms: C5T_50  and  CM5_51
REMARK                            x       y       z     vdW  Elec       q    Type
REMARK                         _______ _______ _______ _____ _____    ______ ____
ROOT
ATOM      1  P   UNL     1     -28.138 -29.820  19.435  0.00  0.00    +0.297 P 
ATOM      2  O   UNL     1     -28.412 -29.438  20.894  0.00  0.00    -0.613 OA
ATOM      3  O   UNL     1     -26.668 -30.006  19.047  0.00  0.00    -0.613 OA
ENDROOT
BRANCH   1   4
ATOM      4  O   UNL     1     -28.845 -28.740  18.501  0.00  0.00    -0.248 OA
BRANCH   4   5
ATOM      5  C   UNL     1     -30.142 -28.266  18.789  0.00  0.00    +0.243 C 
BRANCH   5   6
ATOM      6  C   UNL     1     -30.816 -27.852  17.520  0.00  0.00    +0.189 C 
ATOM      7  C   UNL     1     -30.996 -28.992  16.517  0.00  0.00    +0.219 C 
ATOM      8  C   UNL     1     -30.152 -28.543  15.314  0.00  0.00    +0.211 C 
ATOM      9  C   UNL     1     -30.183 -27.008  15.445  0.00  0.00    +0.301 C 
ATOM     10  O   UNL     1     -30.024 -26.826  16.835  0.00  0.00    -0.336 OA
BRANCH   9  11
ATOM     11  N   UNL     1     -29.197 -26.182  14.682  0.00  0.00    -0.192 N 
ATOM     12  C   UNL     1     -28.464 -26.656  13.606  0.00  0.00    +0.247 A 
ATOM     13  N   UNL     1     -27.646 -25.776  13.066  0.00  0.00    -0.296 NA
ATOM     14  C   UNL     1     -27.836 -24.633  13.827  0.00  0.00    +0.104 A 
ATOM     15  C   UNL     1     -27.259 -23.312  13.777  0.00  0.00    +0.130 A 
ATOM     16  N   UNL     1     -27.674 -22.376  14.701  0.00  0.00    -0.270 NA
ATOM     17  C   UNL     1     -28.617 -22.739  15.627  0.00  0.00    +0.153 A 
ATOM     18  N   UNL     1     -29.230 -23.954  15.770  0.00  0.00    -0.271 NA
ATOM     19  C   UNL     1     -28.798 -24.861  14.837  0.00  0.00    +0.161 A 
BRANCH  15  20
ATOM     20  N   UNL     1     -26.341 -22.946  12.888  0.00  0.00    -0.315 N 
ATOM     21  H   UNL     1     -26.057 -21.958  12.815  0.00  0.00    +0.182 HD
ATOM     22  H   UNL     1     -25.913 -23.650  12.269  0.00  0.00    +0.182 HD
ENDBRANCH  15  20
ENDBRANCH   9  11
BRANCH   8  23
ATOM     23  O   UNL     1     -30.609 -29.018  14.055  0.00  0.00    -0.383 OA
ATOM     24  H   UNL     1     -30.655 -29.967  14.074  0.00  0.00    +0.210 HD
ENDBRANCH   8  23
BRANCH   7  25
ATOM     25  O   UNL     1     -32.387 -29.051  16.189  0.00  0.00    -0.267 OA
BRANCH  25  26
ATOM     26  P   UNL     1     -33.457 -29.924  17.065  0.00  0.00    +0.201 P 
ATOM     27  O   UNL     1     -34.535 -30.476  16.115  0.00  0.00    -0.554 OA
ATOM     28  O   UNL     1     -34.053 -28.944  18.068  0.00  0.00    -0.554 OA
ATOM     29  O   UNL     1     -32.665 -31.055  17.718  0.00  0.00    -0.554 OA
ENDBRANCH  25  26
ENDBRANCH   7  25
ENDBRANCH   5   6
ENDBRANCH   4   5
ENDBRANCH   1   4
BRANCH   1  30
ATOM     30  O   UNL     1     -28.966 -31.123  19.074  0.00  0.00    -0.132 OA
BRANCH  30  31
ATOM     31  P   UNL     1     -28.570 -32.564  18.566  0.00  0.00    +0.297 P 
ATOM     32  O   UNL     1     -29.816 -33.275  18.203  0.00  0.00    -0.613 OA
ATOM     33  O   UNL     1     -27.660 -33.183  19.549  0.00  0.00    -0.613 OA
BRANCH  31  34
ATOM     34  O   UNL     1     -27.843 -32.258  17.143  0.00  0.00    -0.244 OA
BRANCH  34  35
ATOM     35  C   UNL     1     -26.764 -33.063  16.666  0.00  0.00    +0.197 C 
ATOM     36  C   UNL     1     -27.294 -34.397  16.168  0.00  0.00    +0.106 C 
ATOM     37  C   UNL     1     -27.574 -34.122  14.696  0.00  0.00    +0.272 C 
ATOM     38  O   UNL     1     -26.582 -33.204  14.282  0.00  0.00    -0.339 OA
ATOM     39  C   UNL     1     -26.155 -32.407  15.420  0.00  0.00    +0.186 C 
BRANCH  37  40
ATOM     40  N   UNL     1     -27.498 -35.364  13.854  0.00  0.00    -0.174 N 
ATOM     41  C   UNL     1     -28.722 -35.997  13.525  0.00  0.00    +0.327 A 
ATOM     42  N   UNL     1     -28.591 -37.145  12.746  0.00  0.00    -0.186 N 
ATOM     43  H   UNL     1     -29.439 -37.614  12.498  0.00  0.00    +0.226 HD
ATOM     44  C   UNL     1     -27.394 -37.718  12.272  0.00  0.00    +0.193 A 
ATOM     45  C   UNL     1     -26.166 -37.007  12.645  0.00  0.00    +0.022 A 
ATOM     46  C   UNL     1     -24.824 -37.504  12.211  0.00  0.00    +0.045 C 
ATOM     47  O   UNL     1     -27.459 -38.751  11.602  0.00  0.00    -0.408 OA
ATOM     48  O   UNL     1     -29.800 -35.586  13.885  0.00  0.00    -0.384 OA
ATOM     49  C   UNL     1     -26.261 -35.889  13.403  0.00  0.00    +0.153 A 
ENDBRANCH  37  40
BRANCH  39  50
ATOM     50  C   UNL     1     -24.637 -32.317  15.461  0.00  0.00    +0.235 C 
BRANCH  50  51
ATOM     51  O   UNL     1     -24.070 -33.481  16.112  0.00  0.00    -0.273 OA
BRANCH  51  52
ATOM     52  P   UNL     1     -23.005 -33.357  17.361  0.00  0.00    +0.201 P 
ATOM     53  O   UNL     1     -21.772 -32.624  16.802  0.00  0.00    -0.554 OA
ATOM     54  O   UNL     1     -23.726 -32.563  18.473  0.00  0.00    -0.554 OA
ATOM     55  O   UNL     1     -22.692 -34.809  17.771  0.00  0.00    -0.554 OA
ENDBRANCH  51  52
ENDBRANCH  50  51
ENDBRANCH  39  50
ENDBRANCH  34  35
ENDBRANCH  31  34
ENDBRANCH  30  31
ENDBRANCH   1  30
TORSDOF 16
ENDMDL
MODEL 2
REMARK VINA RESULT:      -8.0      5.141      8.555
REMARK  Name = 1u1b_ligand
REMARK  17 active torsions:
REMARK  status: ('A' for Active; 'I' for Inactive)
REMARK    1  A    between atoms: PA_1  and  O5_4
REMARK    2  A    between atoms: PA_1  and  O3A_8
REMARK    3  A    between atoms: O5_4  and  C5_23
REMARK    4  A    between atoms: PB_5  and  O3A_8
REMARK    5  A    between atoms: PB_5  and  O3_38
REMARK    6  A    between atoms: PG_9  and  O3_30
REMARK    7  A    between atoms: N9A_13  and  C1_26
REMARK    8  A    between atoms: C6A_18  and  N6A_19
REMARK    9  A    between atoms: C5_23  and  C4_24
REMARK   10  A    between atoms: C2_27  and  O2_28
REMARK   11  A    between atoms: C3_29  and  O3_30
REMARK   12  A    between atoms: O5_31  and  C5_32
REMARK   13  A    between atoms: O5_31  and  PD_39
REMARK   14  A    between atoms: C5_32  and  C4_33
REMARK   15  A    between atoms: C1_35  and  N1T_43
REMARK   16  A    between atoms: C3_37  and  O3_38
REMARK   17  A    between atoms: C5T_50  and  CM5_51
REMARK                            x       y       z     vdW  Elec       q    Type
REMARK                         _______ _______ _______ _____ _____    ______ ____
ROOT
ATOM      1  P   UNL     1     -31.227 -33.490  13.812  0.00  0.00    +0.297 P 
ATOM      2  O   UNL     1     -30.730 -32.458  14.831  0.00  0.00    -0.613 OA
ATOM      3  O   UNL     1     -30.915 -33.196  12.341  0.00  0.00    -0.613 OA
ENDROOT
BRANCH   1   4
ATOM      4  O   UNL     1     -32.791 -33.691  14.037  0.00  0.00    -0.248 OA
BRANCH   4   5
ATOM      5  C   UNL     1     -33.651 -32.586  14.200  0.00  0.00    +0.243 C 
BRANCH   5   6
ATOM      6  C   UNL     1     -34.330 -32.672  15.530  0.00  0.00    +0.189 C 
ATOM      7  C   UNL     1     -33.629 -31.878  16.633  0.00  0.00    +0.219 C 
ATOM      8  C   UNL     1     -33.207 -32.962  17.637  0.00  0.00    +0.211 C 
ATOM      9  C   UNL     1     -34.260 -34.061  17.398  0.00  0.00    +0.301 C 
ATOM     10  O   UNL     1     -34.369 -34.063  15.991  0.00  0.00    -0.336 OA
BRANCH   9  11
ATOM     11  N   UNL     1     -34.016 -35.442  17.917  0.00  0.00    -0.192 N 
ATOM     12  C   UNL     1     -33.991 -36.573  17.116  0.00  0.00    +0.247 A 
ATOM     13  N   UNL     1     -33.762 -37.699  17.761  0.00  0.00    -0.296 NA
ATOM     14  C   UNL     1     -33.625 -37.305  19.084  0.00  0.00    +0.104 A 
ATOM     15  C   UNL     1     -33.365 -38.030  20.303  0.00  0.00    +0.130 A 
ATOM     16  N   UNL     1     -33.285 -37.324  21.484  0.00  0.00    -0.270 NA
ATOM     17  C   UNL     1     -33.455 -35.964  21.452  0.00  0.00    +0.153 A 
ATOM     18  N   UNL     1     -33.705 -35.175  20.362  0.00  0.00    -0.271 NA
ATOM     19  C   UNL     1     -33.777 -35.905  19.205  0.00  0.00    +0.161 A 
BRANCH  15  20
ATOM     20  N   UNL     1     -33.202 -39.349  20.351  0.00  0.00    -0.315 N 
ATOM     21  H   UNL     1     -32.574 -39.816  19.680  0.00  0.00    +0.182 HD
ATOM     22  H   UNL     1     -33.703 -39.905  21.059  0.00  0.00    +0.182 HD
ENDBRANCH  15  20
ENDBRANCH   9  11
BRANCH   8  23
ATOM     23  O   UNL     1     -33.135 -32.526  18.988  0.00  0.00    -0.383 OA
ATOM     24  H   UNL     1     -32.542 -31.785  19.050  0.00  0.00    +0.210 HD
ENDBRANCH   8  23
BRANCH   7  25
ATOM     25  O   UNL     1     -34.600 -30.990  17.196  0.00  0.00    -0.267 OA
BRANCH  25  26
ATOM     26  P   UNL     1     -34.263 -29.426  17.537  0.00  0.00    +0.201 P 
ATOM     27  O   UNL     1     -34.750 -28.552  16.367  0.00  0.00    -0.554 OA
ATOM     28  O   UNL     1     -32.748 -29.362  17.682  0.00  0.00    -0.554 OA
ATOM     29  O   UNL     1     -35.012 -29.091  18.825  0.00  0.00    -0.554 OA
ENDBRANCH  25  26
ENDBRANCH   7  25
ENDBRANCH   5   6
ENDBRANCH   4   5
ENDBRANCH   1   4
BRANCH   1  30
ATOM     30  O   UNL     1     -30.676 -34.923  14.211  0.00  0.00    -0.132 OA
BRANCH  30  31
ATOM     31  P   UNL     1     -29.782 -35.459  15.395  0.00  0.00    +0.297 P 
ATOM     32  O   UNL     1     -28.946 -36.562  14.870  0.00  0.00    -0.613 OA
ATOM     33  O   UNL     1     -30.645 -35.717  16.565  0.00  0.00    -0.613 OA
BRANCH  31  34
ATOM     34  O   UNL     1     -28.738 -34.236  15.643  0.00  0.00    -0.244 OA
BRANCH  34  35
ATOM     35  C   UNL     1     -27.866 -34.215  16.774  0.00  0.00    +0.197 C 
ATOM     36  C   UNL     1     -26.444 -34.529  16.338  0.00  0.00    +0.106 C 
ATOM     37  C   UNL     1     -25.873 -33.152  16.028  0.00  0.00    +0.272 C 
ATOM     38  O   UNL     1     -26.481 -32.268  16.948  0.00  0.00    -0.339 OA
ATOM     39  C   UNL     1     -27.787 -32.785  17.325  0.00  0.00    +0.186 C 
BRANCH  37  40
ATOM     40  N   UNL     1     -24.380 -33.100  16.187  0.00  0.00    -0.174 N 
ATOM     41  C   UNL     1     -23.681 -32.133  15.424  0.00  0.00    +0.327 A 
ATOM     42  N   UNL     1     -22.300 -32.133  15.608  0.00  0.00    -0.186 N 
ATOM     43  H   UNL     1     -21.780 -31.460  15.081  0.00  0.00    +0.226 HD
ATOM     44  C   UNL     1     -21.557 -32.978  16.455  0.00  0.00    +0.193 A 
ATOM     45  C   UNL     1     -22.344 -33.950  17.221  0.00  0.00    +0.022 A 
ATOM     46  C   UNL     1     -21.684 -34.911  18.159  0.00  0.00    +0.045 C 
ATOM     47  O   UNL     1     -20.330 -32.851  16.488  0.00  0.00    -0.408 OA
ATOM     48  O   UNL     1     -24.228 -31.365  14.667  0.00  0.00    -0.384 OA
ATOM     49  C   UNL     1     -23.688 -33.976  17.062  0.00  0.00    +0.153 A 
ENDBRANCH  37  40
BRANCH  39  50
ATOM     50  C   UNL     1     -27.971 -32.704  18.832  0.00  0.00    +0.235 C 
BRANCH  50  51
ATOM     51  O   UNL     1     -27.865 -31.333  19.291  0.00  0.00    -0.273 OA
BRANCH  51  52
ATOM     52  P   UNL     1     -29.120 -30.273  19.185  0.00  0.00    +0.201 P 
ATOM     53  O   UNL     1     -30.401 -31.126  19.151  0.00  0.00    -0.554 OA
ATOM     54  O   UNL     1     -29.032 -29.366  20.433  0.00  0.00    -0.554 OA
ATOM     55  O   UNL     1     -28.889 -29.503  17.871  0.00  0.00    -0.554 OA
ENDBRANCH  51  52
ENDBRANCH  50  51
ENDBRANCH  39  50
ENDBRANCH  34  35
ENDBRANCH  31  34
ENDBRANCH  30  31
ENDBRANCH   1  30
TORSDOF 16
ENDMDL
MODEL 3
REMARK VINA RESULT:      -8.0      5.774      8.693
REMARK  Name = 1u1b_ligand
REMARK  17 active torsions:
REMARK  status: ('A' for Active; 'I' for Inactive)
REMARK    1  A    between atoms: PA_1  and  O5_4
REMARK    2  A    between atoms: PA_1  and  O3A_8
REMARK    3  A    between atoms: O5_4  and  C5_23
REMARK    4  A    between atoms: PB_5  and  O3A_8
REMARK    5  A    between atoms: PB_5  and  O3_38
REMARK    6  A    between atoms: PG_9  and  O3_30
REMARK    7  A    between atoms: N9A_13  and  C1_26
REMARK    8  A    between atoms: C6A_18  and  N6A_19
REMARK    9  A    between atoms: C5_23  and  C4_24
REMARK   10  A    between atoms: C2_27  and  O2_28
REMARK   11  A    between atoms: C3_29  and  O3_30
REMARK   12  A    between atoms: O5_31  and  C5_32
REMARK   13  A    between atoms: O5_31  and  PD_39
REMARK   14  A    between atoms: C5_32  and  C4_33
REMARK   15  A    between atoms: C1_35  and  N1T_43
REMARK   16  A    between atoms: C3_37  and  O3_38
REMARK   17  A    between atoms: C5T_50  and  CM5_51
REMARK                            x       y       z     vdW  Elec       q    Type
REMARK                         _______ _______ _______ _____ _____    ______ ____
ROOT
ATOM      1  P   UNL     1     -30.443 -29.799  17.808  0.00  0.00    +0.297 P 
ATOM      2  O   UNL     1     -30.458 -28.624  18.792  0.00  0.00    -0.613 OA
ATOM      3  O   UNL     1     -30.695 -29.455  16.337  0.00  0.00    -0.613 OA
ENDROOT
BRANCH   1   4
ATOM      4  O   UNL     1     -31.480 -30.891  18.328  0.00  0.00    -0.248 OA
BRANCH   4   5
ATOM      5  C   UNL     1     -32.355 -31.546  17.437  0.00  0.00    +0.243 C 
BRANCH   5   6
ATOM      6  C   UNL     1     -32.479 -32.985  17.826  0.00  0.00    +0.189 C 
ATOM      7  C   UNL     1     -33.625 -33.716  17.126  0.00  0.00    +0.219 C 
ATOM      8  C   UNL     1     -34.550 -34.118  18.286  0.00  0.00    +0.211 C 
ATOM      9  C   UNL     1     -33.568 -34.224  19.468  0.00  0.00    +0.301 C 
ATOM     10  O   UNL     1     -32.738 -33.103  19.264  0.00  0.00    -0.336 OA
BRANCH   9  11
ATOM     11  N   UNL     1     -34.098 -34.249  20.867  0.00  0.00    -0.192 N 
ATOM     12  C   UNL     1     -33.765 -33.314  21.834  0.00  0.00    +0.247 A 
ATOM     13  N   UNL     1     -34.334 -33.507  23.006  0.00  0.00    -0.296 NA
ATOM     14  C   UNL     1     -35.100 -34.648  22.821  0.00  0.00    +0.104 A 
ATOM     15  C   UNL     1     -35.968 -35.401  23.694  0.00  0.00    +0.130 A 
ATOM     16  N   UNL     1     -36.602 -36.517  23.190  0.00  0.00    -0.270 NA
ATOM     17  C   UNL     1     -36.381 -36.865  21.882  0.00  0.00    +0.153 A 
ATOM     18  N   UNL     1     -35.585 -36.231  20.967  0.00  0.00    -0.271 NA
ATOM     19  C   UNL     1     -34.971 -35.126  21.497  0.00  0.00    +0.161 A 
BRANCH  15  20
ATOM     20  N   UNL     1     -36.189 -35.078  24.965  0.00  0.00    -0.315 N 
ATOM     21  H   UNL     1     -36.826 -35.650  25.540  0.00  0.00    +0.182 HD
ATOM     22  H   UNL     1     -35.725 -34.255  25.376  0.00  0.00    +0.182 HD
ENDBRANCH  15  20
ENDBRANCH   9  11
BRANCH   8  23
ATOM     23  O   UNL     1     -35.305 -35.302  18.063  0.00  0.00    -0.383 OA
ATOM     24  H   UNL     1     -35.666 -35.285  17.184  0.00  0.00    +0.210 HD
ENDBRANCH   8  23
BRANCH   7  25
ATOM     25  O   UNL     1     -33.063 -34.863  16.482  0.00  0.00    -0.267 OA
BRANCH  25  26
ATOM     26  P   UNL     1     -33.651 -35.454  15.075  0.00  0.00    +0.201 P 
ATOM     27  O   UNL     1     -32.467 -35.822  14.163  0.00  0.00    -0.554 OA
ATOM     28  O   UNL     1     -34.480 -34.324  14.478  0.00  0.00    -0.554 OA
ATOM     29  O   UNL     1     -34.476 -36.689  15.433  0.00  0.00    -0.554 OA
ENDBRANCH  25  26
ENDBRANCH   7  25
ENDBRANCH   5   6
ENDBRANCH   4   5
ENDBRANCH   1   4
BRANCH   1  30
ATOM     30  O   UNL     1     -29.074 -30.585  17.957  0.00  0.00    -0.132 OA
BRANCH  30  31
ATOM     31  P   UNL     1     -27.985 -30.678  19.096  0.00  0.00    +0.297 P 
ATOM     32  O   UNL     1     -28.692 -30.808  20.390  0.00  0.00    -0.613 OA
ATOM     33  O   UNL     1     -27.018 -29.576  18.923  0.00  0.00    -0.613 OA
BRANCH  31  34
ATOM     34  O   UNL     1     -27.321 -32.141  18.842  0.00  0.00    -0.244 OA
BRANCH  34  35
ATOM     35  C   UNL     1     -26.857 -32.539  17.551  0.00  0.00    +0.197 C 
ATOM     36  C   UNL     1     -25.359 -32.304  17.445  0.00  0.00    +0.106 C 
ATOM     37  C   UNL     1     -24.774 -33.626  17.924  0.00  0.00    +0.272 C 
ATOM     38  O   UNL     1     -25.679 -34.624  17.496  0.00  0.00    -0.339 OA
ATOM     39  C   UNL     1     -27.015 -34.057  17.402  0.00  0.00    +0.186 C 
BRANCH  37  40
ATOM     40  N   UNL     1     -23.413 -33.895  17.348  0.00  0.00    -0.174 N 
ATOM     41  C   UNL     1     -22.339 -34.031  18.261  0.00  0.00    +0.327 A 
ATOM     42  N   UNL     1     -21.101 -34.275  17.671  0.00  0.00    -0.186 N 
ATOM     43  H   UNL     1     -20.323 -34.376  18.292  0.00  0.00    +0.226 HD
ATOM     44  C   UNL     1     -20.825 -34.396  16.295  0.00  0.00    +0.193 A 
ATOM     45  C   UNL     1     -21.984 -34.251  15.407  0.00  0.00    +0.022 A 
ATOM     46  C   UNL     1     -21.837 -34.354  13.921  0.00  0.00    +0.045 C 
ATOM     47  O   UNL     1     -19.662 -34.601  15.941  0.00  0.00    -0.408 OA
ATOM     48  O   UNL     1     -22.473 -33.941  19.459  0.00  0.00    -0.384 OA
ATOM     49  C   UNL     1     -23.201 -34.010  15.950  0.00  0.00    +0.153 A 
ENDBRANCH  37  40
BRANCH  39  50
ATOM     50  C   UNL     1     -27.673 -34.474  16.096  0.00  0.00    +0.235 C 
BRANCH  50  51
ATOM     51  O   UNL     1     -26.704 -35.069  15.198  0.00  0.00    -0.273 OA
BRANCH  51  52
ATOM     52  P   UNL     1     -26.936 -36.547  14.510  0.00  0.00    +0.201 P 
ATOM     53  O   UNL     1     -26.511 -36.406  13.038  0.00  0.00    -0.554 OA
ATOM     54  O   UNL     1     -26.055 -37.540  15.300  0.00  0.00    -0.554 OA
ATOM     55  O   UNL     1     -28.442 -36.832  14.665  0.00  0.00    -0.554 OA
ENDBRANCH  51  52
ENDBRANCH  50  51
ENDBRANCH  39  50
ENDBRANCH  34  35
ENDBRANCH  31  34
ENDBRANCH  30  31
ENDBRANCH   1  30
TORSDOF 16
ENDMDL
MODEL 4
REMARK VINA RESULT:      -7.8      4.454     11.008
REMARK  Name = 1u1b_ligand
REMARK  17 active torsions:
REMARK  status: ('A' for Active; 'I' for Inactive)
REMARK    1  A    between atoms: PA_1  and  O5_4
REMARK    2  A    between atoms: PA_1  and  O3A_8
REMARK    3  A    between atoms: O5_4  and  C5_23
REMARK    4  A    between atoms: PB_5  and  O3A_8
REMARK    5  A    between atoms: PB_5  and  O3_38
REMARK    6  A    between atoms: PG_9  and  O3_30
REMARK    7  A    between atoms: N9A_13  and  C1_26
REMARK    8  A    between atoms: C6A_18  and  N6A_19
REMARK    9  A    between atoms: C5_23  and  C4_24
REMARK   10  A    between atoms: C2_27  and  O2_28
REMARK   11  A    between atoms: C3_29  and  O3_30
REMARK   12  A    between atoms: O5_31  and  C5_32
REMARK   13  A    between atoms: O5_31  and  PD_39
REMARK   14  A    between atoms: C5_32  and  C4_33
REMARK   15  A    between atoms: C1_35  and  N1T_43
REMARK   16  A    between atoms: C3_37  and  O3_38
REMARK   17  A    between atoms: C5T_50  and  CM5_51
REMARK                            x       y       z     vdW  Elec       q    Type
REMARK                         _______ _______ _______ _____ _____    ______ ____
ROOT
ATOM      1  P   UNL     1     -28.750 -29.808  19.157  0.00  0.00    +0.297 P 
ATOM      2  O   UNL     1     -27.234 -29.614  19.284  0.00  0.00    -0.613 OA
ATOM      3  O   UNL     1     -29.610 -29.165  20.249  0.00  0.00    -0.613 OA
ENDROOT
BRANCH   1   4
ATOM      4  O   UNL     1     -29.039 -31.371  19.044  0.00  0.00    -0.248 OA
BRANCH   4   5
ATOM      5  C   UNL     1     -28.010 -32.317  19.230  0.00  0.00    +0.243 C 
BRANCH   5   6
ATOM      6  C   UNL     1     -27.340 -32.592  17.922  0.00  0.00    +0.189 C 
ATOM      7  C   UNL     1     -27.732 -33.932  17.298  0.00  0.00    +0.219 C 
ATOM      8  C   UNL     1     -26.406 -34.709  17.266  0.00  0.00    +0.211 C 
ATOM      9  C   UNL     1     -25.363 -33.578  17.188  0.00  0.00    +0.301 C 
ATOM     10  O   UNL     1     -25.885 -32.632  18.095  0.00  0.00    -0.336 OA
BRANCH   9  11
ATOM     11  N   UNL     1     -23.929 -33.875  17.492  0.00  0.00    -0.192 N 
ATOM     12  C   UNL     1     -23.425 -34.008  18.776  0.00  0.00    +0.247 A 
ATOM     13  N   UNL     1     -22.135 -34.268  18.837  0.00  0.00    -0.296 NA
ATOM     14  C   UNL     1     -21.740 -34.312  17.508  0.00  0.00    +0.104 A 
ATOM     15  C   UNL     1     -20.469 -34.550  16.869  0.00  0.00    +0.130 A 
ATOM     16  N   UNL     1     -20.411 -34.527  15.492  0.00  0.00    -0.270 NA
ATOM     17  C   UNL     1     -21.561 -34.279  14.787  0.00  0.00    +0.153 A 
ATOM     18  N   UNL     1     -22.814 -34.041  15.283  0.00  0.00    -0.271 NA
ATOM     19  C   UNL     1     -22.840 -34.073  16.653  0.00  0.00    +0.161 A 
BRANCH  15  20
ATOM     20  N   UNL     1     -19.345 -34.788  17.537  0.00  0.00    -0.315 N 
ATOM     21  H   UNL     1     -18.447 -34.847  17.034  0.00  0.00    +0.182 HD
ATOM     22  H   UNL     1     -19.369 -34.914  18.560  0.00  0.00    +0.182 HD
ENDBRANCH  15  20
ENDBRANCH   9  11
BRANCH   8  23
ATOM     23  O   UNL     1     -26.298 -35.659  16.215  0.00  0.00    -0.383 OA
ATOM     24  H   UNL     1     -26.549 -35.250  15.393  0.00  0.00    +0.210 HD
ENDBRANCH   8  23
BRANCH   7  25
ATOM     25  O   UNL     1     -28.212 -33.659  15.978  0.00  0.00    -0.267 OA
BRANCH  25  26
ATOM     26  P   UNL     1     -29.284 -34.631  15.217  0.00  0.00    +0.201 P 
ATOM     27  O   UNL     1     -28.527 -35.486  14.186  0.00  0.00    -0.554 OA
ATOM     28  O   UNL     1     -30.271 -33.690  14.538  0.00  0.00    -0.554 OA
ATOM     29  O   UNL     1     -29.922 -35.504  16.297  0.00  0.00    -0.554 OA
ENDBRANCH  25  26
ENDBRANCH   7  25
ENDBRANCH   5   6
ENDBRANCH   4   5
ENDBRANCH   1   4
BRANCH   1  30
ATOM     30  O   UNL     1     -29.220 -29.307  17.728  0.00  0.00    -0.132 OA
BRANCH  30  31
ATOM     31  P   UNL     1     -30.533 -28.616  17.189  0.00  0.00    +0.297 P 
ATOM     32  O   UNL     1     -31.692 -29.315  17.788  0.00  0.00    -0.613 OA
ATOM     33  O   UNL     1     -30.448 -28.513  15.719  0.00  0.00    -0.613 OA
BRANCH  31  34
ATOM     34  O   UNL     1     -30.505 -27.164  17.922  0.00  0.00    -0.244 OA
BRANCH  34  35
ATOM     35  C   UNL     1     -31.336 -26.088  17.484  0.00  0.00    +0.197 C 
ATOM     36  C   UNL     1     -32.717 -26.215  18.104  0.00  0.00    +0.106 C 
ATOM     37  C   UNL     1     -32.582 -25.419  19.395  0.00  0.00    +0.272 C 
ATOM     38  O   UNL     1     -31.693 -24.360  19.103  0.00  0.00    -0.339 OA
ATOM     39  C   UNL     1     -30.789 -24.767  18.040  0.00  0.00    +0.186 C 
BRANCH  37  40
ATOM     40  N   UNL     1     -33.895 -24.863  19.868  0.00  0.00    -0.174 N 
ATOM     41  C   UNL     1     -34.426 -23.761  19.152  0.00  0.00    +0.327 A 
ATOM     42  N   UNL     1     -35.642 -23.285  19.637  0.00  0.00    -0.186 N 
ATOM     43  H   UNL     1     -36.042 -22.507  19.151  0.00  0.00    +0.226 HD
ATOM     44  C   UNL     1     -36.371 -23.779  20.737  0.00  0.00    +0.193 A 
ATOM     45  C   UNL     1     -35.766 -24.924  21.427  0.00  0.00    +0.022 A 
ATOM     46  C   UNL     1     -36.431 -25.549  22.613  0.00  0.00    +0.045 C 
ATOM     47  O   UNL     1     -37.431 -23.227  21.039  0.00  0.00    -0.408 OA
ATOM     48  O   UNL     1     -33.876 -23.264  18.197  0.00  0.00    -0.384 OA
ATOM     49  C   UNL     1     -34.584 -25.408  20.981  0.00  0.00    +0.153 A 
ENDBRANCH  37  40
BRANCH  39  50
ATOM     50  C   UNL     1     -30.675 -23.669  16.995  0.00  0.00    +0.235 C 
BRANCH  50  51
ATOM     51  O   UNL     1     -29.293 -23.460  16.616  0.00  0.00    -0.273 OA
BRANCH  51  52
ATOM     52  P   UNL     1     -28.842 -23.183  15.057  0.00  0.00    +0.201 P 
ATOM     53  O   UNL     1     -28.396 -21.711  14.994  0.00  0.00    -0.554 OA
ATOM     54  O   UNL     1     -27.696 -24.174  14.751  0.00  0.00    -0.554 OA
ATOM     55  O   UNL     1     -30.104 -23.455  14.217  0.00  0.00    -0.554 OA
ENDBRANCH  51  52
ENDBRANCH  50  51
ENDBRANCH  39  50
ENDBRANCH  34  35
ENDBRANCH  31  34
ENDBRANCH  30  31
ENDBRANCH   1  30
TORSDOF 16
ENDMDL
MODEL 5
REMARK VINA RESULT:      -7.6      6.014     10.315
REMARK  Name = 1u1b_ligand
REMARK  17 active torsions:
REMARK  status: ('A' for Active; 'I' for Inactive)
REMARK    1  A    between atoms: PA_1  and  O5_4
REMARK    2  A    between atoms: PA_1  and  O3A_8
REMARK    3  A    between atoms: O5_4  and  C5_23
REMARK    4  A    between atoms: PB_5  and  O3A_8
REMARK    5  A    between atoms: PB_5  and  O3_38
REMARK    6  A    between atoms: PG_9  and  O3_30
REMARK    7  A    between atoms: N9A_13  and  C1_26
REMARK    8  A    between atoms: C6A_18  and  N6A_19
REMARK    9  A    between atoms: C5_23  and  C4_24
REMARK   10  A    between atoms: C2_27  and  O2_28
REMARK   11  A    between atoms: C3_29  and  O3_30
REMARK   12  A    between atoms: O5_31  and  C5_32
REMARK   13  A    between atoms: O5_31  and  PD_39
REMARK   14  A    between atoms: C5_32  and  C4_33
REMARK   15  A    between atoms: C1_35  and  N1T_43
REMARK   16  A    between atoms: C3_37  and  O3_38
REMARK   17  A    between atoms: C5T_50  and  CM5_51
REMARK                            x       y       z     vdW  Elec       q    Type
REMARK                         _______ _______ _______ _____ _____    ______ ____
ROOT
ATOM      1  P   UNL     1     -30.413 -34.767  15.097  0.00  0.00    +0.297 P 
ATOM      2  O   UNL     1     -30.442 -35.580  16.397  0.00  0.00    -0.613 OA
ATOM      3  O   UNL     1     -29.883 -35.492  13.856  0.00  0.00    -0.613 OA
ENDROOT
BRANCH   1   4
ATOM      4  O   UNL     1     -29.596 -33.428  15.372  0.00  0.00    -0.248 OA
BRANCH   4   5
ATOM      5  C   UNL     1     -28.187 -33.436  15.446  0.00  0.00    +0.243 C 
BRANCH   5   6
ATOM      6  C   UNL     1     -27.760 -33.218  16.863  0.00  0.00    +0.189 C 
ATOM      7  C   UNL     1     -27.666 -31.744  17.258  0.00  0.00    +0.219 C 
ATOM      8  C   UNL     1     -26.177 -31.559  17.587  0.00  0.00    +0.211 C 
ATOM      9  C   UNL     1     -25.758 -32.976  18.026  0.00  0.00    +0.301 C 
ATOM     10  O   UNL     1     -26.427 -33.786  17.084  0.00  0.00    -0.336 OA
BRANCH   9  11
ATOM     11  N   UNL     1     -24.306 -33.327  18.097  0.00  0.00    -0.192 N 
ATOM     12  C   UNL     1     -23.683 -33.801  19.241  0.00  0.00    +0.247 A 
ATOM     13  N   UNL     1     -22.397 -34.052  19.104  0.00  0.00    -0.296 NA
ATOM     14  C   UNL     1     -22.132 -33.726  17.782  0.00  0.00    +0.104 A 
ATOM     15  C   UNL     1     -20.932 -33.764  16.982  0.00  0.00    +0.130 A 
ATOM     16  N   UNL     1     -21.006 -33.363  15.665  0.00  0.00    -0.270 NA
ATOM     17  C   UNL     1     -22.215 -32.946  15.170  0.00  0.00    +0.153 A 
ATOM     18  N   UNL     1     -23.411 -32.868  15.831  0.00  0.00    -0.271 NA
ATOM     19  C   UNL     1     -23.305 -33.274  17.136  0.00  0.00    +0.161 A 
BRANCH  15  20
ATOM     20  N   UNL     1     -19.753 -34.162  17.449  0.00  0.00    -0.315 N 
ATOM     21  H   UNL     1     -19.629 -35.129  17.783  0.00  0.00    +0.182 HD
ATOM     22  H   UNL     1     -18.960 -33.503  17.478  0.00  0.00    +0.182 HD
ENDBRANCH  15  20
ENDBRANCH   9  11
BRANCH   8  23
ATOM     23  O   UNL     1     -25.901 -30.557  18.557  0.00  0.00    -0.383 OA
ATOM     24  H   UNL     1     -25.110 -30.786  19.032  0.00  0.00    +0.210 HD
ENDBRANCH   8  23
BRANCH   7  25
ATOM     25  O   UNL     1     -28.486 -31.565  18.417  0.00  0.00    -0.267 OA
BRANCH  25  26
ATOM     26  P   UNL     1     -29.615 -30.386  18.518  0.00  0.00    +0.201 P 
ATOM     27  O   UNL     1     -30.989 -30.991  18.178  0.00  0.00    -0.554 OA
ATOM     28  O   UNL     1     -29.200 -29.341  17.490  0.00  0.00    -0.554 OA
ATOM     29  O   UNL     1     -29.580 -29.872  19.956  0.00  0.00    -0.554 OA
ENDBRANCH  25  26
ENDBRANCH   7  25
ENDBRANCH   5   6
ENDBRANCH   4   5
ENDBRANCH   1   4
BRANCH   1  30
ATOM     30  O   UNL     1     -31.861 -34.187  14.813  0.00  0.00    -0.132 OA
BRANCH  30  31
ATOM     31  P   UNL     1     -33.323 -34.744  15.026  0.00  0.00    +0.297 P 
ATOM     32  O   UNL     1     -33.298 -36.199  14.758  0.00  0.00    -0.613 OA
ATOM     33  O   UNL     1     -34.269 -33.899  14.271  0.00  0.00    -0.613 OA
BRANCH  31  34
ATOM     34  O   UNL     1     -33.523 -34.627  16.636  0.00  0.00    -0.244 OA
BRANCH  34  35
ATOM     35  C   UNL     1     -34.543 -35.358  17.318  0.00  0.00    +0.197 C 
ATOM     36  C   UNL     1     -34.119 -35.622  18.753  0.00  0.00    +0.106 C 
ATOM     37  C   UNL     1     -34.666 -34.410  19.496  0.00  0.00    +0.272 C 
ATOM     38  O   UNL     1     -35.870 -34.068  18.838  0.00  0.00    -0.339 OA
ATOM     39  C   UNL     1     -35.795 -34.482  17.446  0.00  0.00    +0.186 C 
BRANCH  37  40
ATOM     40  N   UNL     1     -34.944 -34.699  20.943  0.00  0.00    -0.174 N 
ATOM     41  C   UNL     1     -34.440 -33.780  21.896  0.00  0.00    +0.327 A 
ATOM     42  N   UNL     1     -34.724 -34.101  23.221  0.00  0.00    -0.186 N 
ATOM     43  H   UNL     1     -34.380 -33.469  23.916  0.00  0.00    +0.226 HD
ATOM     44  C   UNL     1     -35.442 -35.220  23.689  0.00  0.00    +0.193 A 
ATOM     45  C   UNL     1     -35.941 -36.126  22.649  0.00  0.00    +0.022 A 
ATOM     46  C   UNL     1     -36.718 -37.354  23.003  0.00  0.00    +0.045 C 
ATOM     47  O   UNL     1     -35.591 -35.359  24.905  0.00  0.00    -0.408 OA
ATOM     48  O   UNL     1     -33.810 -32.793  21.595  0.00  0.00    -0.384 OA
ATOM     49  C   UNL     1     -35.679 -35.842  21.351  0.00  0.00    +0.153 A 
ENDBRANCH  37  40
BRANCH  39  50
ATOM     50  C   UNL     1     -37.077 -35.190  17.037  0.00  0.00    +0.235 C 
BRANCH  50  51
ATOM     51  O   UNL     1     -37.363 -34.967  15.635  0.00  0.00    -0.273 OA
BRANCH  51  52
ATOM     52  P   UNL     1     -37.767 -36.195  14.615  0.00  0.00    +0.201 P 
ATOM     53  O   UNL     1     -38.411 -37.285  15.489  0.00  0.00    -0.554 OA
ATOM     54  O   UNL     1     -38.744 -35.598  13.577  0.00  0.00    -0.554 OA
ATOM     55  O   UNL     1     -36.436 -36.652  13.987  0.00  0.00    -0.554 OA
ENDBRANCH  51  52
ENDBRANCH  50  51
ENDBRANCH  39  50
ENDBRANCH  34  35
ENDBRANCH  31  34
ENDBRANCH  30  31
ENDBRANCH   1  30
TORSDOF 16
ENDMDL
MODEL 6
REMARK VINA RESULT:      -7.6      3.530      6.031
REMARK  Name = 1u1b_ligand
REMARK  17 active torsions:
REMARK  status: ('A' for Active; 'I' for Inactive)
REMARK    1  A    between atoms: PA_1  and  O5_4
REMARK    2  A    between atoms: PA_1  and  O3A_8
REMARK    3  A    between atoms: O5_4  and  C5_23
REMARK    4  A    between atoms: PB_5  and  O3A_8
REMARK    5  A    between atoms: PB_5  and  O3_38
REMARK    6  A    between atoms: PG_9  and  O3_30
REMARK    7  A    between atoms: N9A_13  and  C1_26
REMARK    8  A    between atoms: C6A_18  and  N6A_19
REMARK    9  A    between atoms: C5_23  and  C4_24
REMARK   10  A    between atoms: C2_27  and  O2_28
REMARK   11  A    between atoms: C3_29  and  O3_30
REMARK   12  A    between atoms: O5_31  and  C5_32
REMARK   13  A    between atoms: O5_31  and  PD_39
REMARK   14  A    between atoms: C5_32  and  C4_33
REMARK   15  A    between atoms: C1_35  and  N1T_43
REMARK   16  A    between atoms: C3_37  and  O3_38
REMARK   17  A    between atoms: C5T_50  and  CM5_51
REMARK                            x       y       z     vdW  Elec       q    Type
REMARK                         _______ _______ _______ _____ _____    ______ ____
ROOT
ATOM      1  P   UNL     1     -30.380 -28.763  17.078  0.00  0.00    +0.297 P 
ATOM      2  O   UNL     1     -31.108 -29.809  16.227  0.00  0.00    -0.613 OA
ATOM      3  O   UNL     1     -31.246 -27.955  18.049  0.00  0.00    -0.613 OA
ENDROOT
BRANCH   1   4
ATOM      4  O   UNL     1     -29.574 -27.803  16.094  0.00  0.00    -0.248 OA
BRANCH   4   5
ATOM      5  C   UNL     1     -29.874 -26.428  16.010  0.00  0.00    +0.243 C 
BRANCH   5   6
ATOM      6  C   UNL     1     -29.174 -25.834  14.829  0.00  0.00    +0.189 C 
ATOM      7  C   UNL     1     -30.091 -25.026  13.910  0.00  0.00    +0.219 C 
ATOM      8  C   UNL     1     -30.038 -25.800  12.585  0.00  0.00    +0.211 C 
ATOM      9  C   UNL     1     -28.653 -26.473  12.652  0.00  0.00    +0.301 C 
ATOM     10  O   UNL     1     -28.593 -26.892  13.997  0.00  0.00    -0.336 OA
BRANCH   9  11
ATOM     11  N   UNL     1     -28.336 -27.603  11.725  0.00  0.00    -0.192 N 
ATOM     12  C   UNL     1     -29.294 -28.312  11.019  0.00  0.00    +0.247 A 
ATOM     13  N   UNL     1     -28.816 -29.273  10.255  0.00  0.00    -0.296 NA
ATOM     14  C   UNL     1     -27.446 -29.212  10.459  0.00  0.00    +0.104 A 
ATOM     15  C   UNL     1     -26.339 -29.974   9.934  0.00  0.00    +0.130 A 
ATOM     16  N   UNL     1     -25.064 -29.652  10.347  0.00  0.00    -0.270 NA
ATOM     17  C   UNL     1     -24.899 -28.623  11.238  0.00  0.00    +0.153 A 
ATOM     18  N   UNL     1     -25.868 -27.836  11.799  0.00  0.00    -0.271 NA
ATOM     19  C   UNL     1     -27.123 -28.179  11.368  0.00  0.00    +0.161 A 
BRANCH  15  20
ATOM     20  N   UNL     1     -26.482 -30.977   9.073  0.00  0.00    -0.315 N 
ATOM     21  H   UNL     1     -25.685 -31.596   8.864  0.00  0.00    +0.182 HD
ATOM     22  H   UNL     1     -27.391 -31.136   8.613  0.00  0.00    +0.182 HD
ENDBRANCH  15  20
ENDBRANCH   9  11
BRANCH   8  23
ATOM     23  O   UNL     1     -30.230 -25.005  11.422  0.00  0.00    -0.383 OA
ATOM     24  H   UNL     1     -29.412 -24.946  10.941  0.00  0.00    +0.210 HD
ENDBRANCH   8  23
BRANCH   7  25
ATOM     25  O   UNL     1     -29.516 -23.722  13.781  0.00  0.00    -0.267 OA
BRANCH  25  26
ATOM     26  P   UNL     1     -29.743 -22.549  14.898  0.00  0.00    +0.201 P 
ATOM     27  O   UNL     1     -30.722 -23.070  15.965  0.00  0.00    -0.554 OA
ATOM     28  O   UNL     1     -30.334 -21.372  14.133  0.00  0.00    -0.554 OA
ATOM     29  O   UNL     1     -28.372 -22.254  15.504  0.00  0.00    -0.554 OA
ENDBRANCH  25  26
ENDBRANCH   7  25
ENDBRANCH   5   6
ENDBRANCH   4   5
ENDBRANCH   1   4
BRANCH   1  30
ATOM     30  O   UNL     1     -29.192 -29.463  17.860  0.00  0.00    -0.132 OA
BRANCH  30  31
ATOM     31  P   UNL     1     -29.088 -30.218  19.243  0.00  0.00    +0.297 P 
ATOM     32  O   UNL     1     -30.110 -31.289  19.253  0.00  0.00    -0.613 OA
ATOM     33  O   UNL     1     -29.093 -29.222  20.332  0.00  0.00    -0.613 OA
BRANCH  31  34
ATOM     34  O   UNL     1     -27.670 -31.006  19.119  0.00  0.00    -0.244 OA
BRANCH  34  35
ATOM     35  C   UNL     1     -27.328 -31.751  17.949  0.00  0.00    +0.197 C 
ATOM     36  C   UNL     1     -25.829 -31.678  17.710  0.00  0.00    +0.106 C 
ATOM     37  C   UNL     1     -25.305 -32.884  18.479  0.00  0.00    +0.272 C 
ATOM     38  O   UNL     1     -26.305 -33.876  18.365  0.00  0.00    -0.339 OA
ATOM     39  C   UNL     1     -27.601 -33.239  18.198  0.00  0.00    +0.186 C 
BRANCH  37  40
ATOM     40  N   UNL     1     -24.010 -33.403  17.921  0.00  0.00    -0.174 N 
ATOM     41  C   UNL     1     -22.985 -33.716  18.848  0.00  0.00    +0.327 A 
ATOM     42  N   UNL     1     -21.807 -34.189  18.274  0.00  0.00    -0.186 N 
ATOM     43  H   UNL     1     -21.065 -34.418  18.905  0.00  0.00    +0.226 HD
ATOM     44  C   UNL     1     -21.547 -34.378  16.903  0.00  0.00    +0.193 A 
ATOM     45  C   UNL     1     -22.653 -34.041  16.001  0.00  0.00    +0.022 A 
ATOM     46  C   UNL     1     -22.515 -34.192  14.519  0.00  0.00    +0.045 C 
ATOM     47  O   UNL     1     -20.436 -34.795  16.565  0.00  0.00    -0.408 OA
ATOM     48  O   UNL     1     -23.110 -33.585  20.043  0.00  0.00    -0.384 OA
ATOM     49  C   UNL     1     -23.811 -33.577  16.528  0.00  0.00    +0.153 A 
ENDBRANCH  37  40
BRANCH  39  50
ATOM     50  C   UNL     1     -28.378 -33.911  17.077  0.00  0.00    +0.235 C 
BRANCH  50  51
ATOM     51  O   UNL     1     -28.973 -32.923  16.200  0.00  0.00    -0.273 OA
BRANCH  51  52
ATOM     52  P   UNL     1     -29.154 -33.179  14.584  0.00  0.00    +0.201 P 
ATOM     53  O   UNL     1     -27.830 -33.792  14.095  0.00  0.00    -0.554 OA
ATOM     54  O   UNL     1     -30.357 -34.136  14.425  0.00  0.00    -0.554 OA
ATOM     55  O   UNL     1     -29.418 -31.785  13.981  0.00  0.00    -0.554 OA
ENDBRANCH  51  52
ENDBRANCH  50  51
ENDBRANCH  39  50
ENDBRANCH  34  35
ENDBRANCH  31  34
ENDBRANCH  30  31
ENDBRANCH   1  30
TORSDOF 16
ENDMDL
MODEL 7
REMARK VINA RESULT:      -7.4      3.739      9.041
REMARK  Name = 1u1b_ligand
REMARK  17 active torsions:
REMARK  status: ('A' for Active; 'I' for Inactive)
REMARK    1  A    between atoms: PA_1  and  O5_4
REMARK    2  A    between atoms: PA_1  and  O3A_8
REMARK    3  A    between atoms: O5_4  and  C5_23
REMARK    4  A    between atoms: PB_5  and  O3A_8
REMARK    5  A    between atoms: PB_5  and  O3_38
REMARK    6  A    between atoms: PG_9  and  O3_30
REMARK    7  A    between atoms: N9A_13  and  C1_26
REMARK    8  A    between atoms: C6A_18  and  N6A_19
REMARK    9  A    between atoms: C5_23  and  C4_24
REMARK   10  A    between atoms: C2_27  and  O2_28
REMARK   11  A    between atoms: C3_29  and  O3_30
REMARK   12  A    between atoms: O5_31  and  C5_32
REMARK   13  A    between atoms: O5_31  and  PD_39
REMARK   14  A    between atoms: C5_32  and  C4_33
REMARK   15  A    between atoms: C1_35  and  N1T_43
REMARK   16  A    between atoms: C3_37  and  O3_38
REMARK   17  A    between atoms: C5T_50  and  CM5_51
REMARK                            x       y       z     vdW  Elec       q    Type
REMARK                         _______ _______ _______ _____ _____    ______ ____
ROOT
ATOM      1  P   UNL     1     -29.792 -34.446  13.463  0.00  0.00    +0.297 P 
ATOM      2  O   UNL     1     -30.635 -35.129  14.545  0.00  0.00    -0.613 OA
ATOM      3  O   UNL     1     -29.407 -35.310  12.258  0.00  0.00    -0.613 OA
ENDROOT
BRANCH   1   4
ATOM      4  O   UNL     1     -28.500 -33.828  14.161  0.00  0.00    -0.248 OA
BRANCH   4   5
ATOM      5  C   UNL     1     -27.520 -34.658  14.745  0.00  0.00    +0.243 C 
BRANCH   5   6
ATOM      6  C   UNL     1     -27.277 -34.227  16.157  0.00  0.00    +0.189 C 
ATOM      7  C   UNL     1     -27.422 -32.720  16.375  0.00  0.00    +0.219 C 
ATOM      8  C   UNL     1     -26.013 -32.288  16.810  0.00  0.00    +0.211 C 
ATOM      9  C   UNL     1     -25.459 -33.574  17.455  0.00  0.00    +0.301 C 
ATOM     10  O   UNL     1     -25.911 -34.569  16.564  0.00  0.00    -0.336 OA
BRANCH   9  11
ATOM     11  N   UNL     1     -23.989 -33.703  17.698  0.00  0.00    -0.192 N 
ATOM     12  C   UNL     1     -23.427 -33.861  18.955  0.00  0.00    +0.247 A 
ATOM     13  N   UNL     1     -22.113 -33.955  18.962  0.00  0.00    -0.296 NA
ATOM     14  C   UNL     1     -21.763 -33.852  17.624  0.00  0.00    +0.104 A 
ATOM     15  C   UNL     1     -20.495 -33.876  16.935  0.00  0.00    +0.130 A 
ATOM     16  N   UNL     1     -20.489 -33.746  15.563  0.00  0.00    -0.270 NA
ATOM     17  C   UNL     1     -21.686 -33.600  14.910  0.00  0.00    +0.153 A 
ATOM     18  N   UNL     1     -22.941 -33.563  15.455  0.00  0.00    -0.271 NA
ATOM     19  C   UNL     1     -22.914 -33.696  16.819  0.00  0.00    +0.161 A 
BRANCH  15  20
ATOM     20  N   UNL     1     -19.327 -34.013  17.555  0.00  0.00    -0.315 N 
ATOM     21  H   UNL     1     -18.965 -33.252  18.149  0.00  0.00    +0.182 HD
ATOM     22  H   UNL     1     -18.781 -34.879  17.440  0.00  0.00    +0.182 HD
ENDBRANCH  15  20
ENDBRANCH   9  11
BRANCH   8  23
ATOM     23  O   UNL     1     -25.976 -31.157  17.670  0.00  0.00    -0.383 OA
ATOM     24  H   UNL     1     -25.305 -30.554  17.370  0.00  0.00    +0.210 HD
ENDBRANCH   8  23
BRANCH   7  25
ATOM     25  O   UNL     1     -28.376 -32.536  17.425  0.00  0.00    -0.267 OA
BRANCH  25  26
ATOM     26  P   UNL     1     -29.513 -31.361  17.380  0.00  0.00    +0.201 P 
ATOM     27  O   UNL     1     -30.373 -31.460  18.652  0.00  0.00    -0.554 OA
ATOM     28  O   UNL     1     -30.337 -31.646  16.131  0.00  0.00    -0.554 OA
ATOM     29  O   UNL     1     -28.763 -30.032  17.323  0.00  0.00    -0.554 OA
ENDBRANCH  25  26
ENDBRANCH   7  25
ENDBRANCH   5   6
ENDBRANCH   4   5
ENDBRANCH   1   4
BRANCH   1  30
ATOM     30  O   UNL     1     -30.534 -33.132  12.976  0.00  0.00    -0.132 OA
BRANCH  30  31
ATOM     31  P   UNL     1     -30.550 -32.324  11.621  0.00  0.00    +0.297 P 
ATOM     32  O   UNL     1     -31.892 -32.481  11.016  0.00  0.00    -0.613 OA
ATOM     33  O   UNL     1     -29.365 -32.700  10.826  0.00  0.00    -0.613 OA
BRANCH  31  34
ATOM     34  O   UNL     1     -30.505 -30.777  12.122  0.00  0.00    -0.244 OA
BRANCH  34  35
ATOM     35  C   UNL     1     -29.288 -30.028  12.129  0.00  0.00    +0.197 C 
ATOM     36  C   UNL     1     -29.590 -28.553  12.332  0.00  0.00    +0.106 C 
ATOM     37  C   UNL     1     -29.545 -28.403  13.846  0.00  0.00    +0.272 C 
ATOM     38  O   UNL     1     -28.556 -29.308  14.293  0.00  0.00    -0.339 OA
ATOM     39  C   UNL     1     -28.461 -30.420  13.360  0.00  0.00    +0.186 C 
BRANCH  37  40
ATOM     40  N   UNL     1     -29.187 -27.009  14.276  0.00  0.00    -0.174 N 
ATOM     41  C   UNL     1     -29.934 -26.447  15.340  0.00  0.00    +0.327 A 
ATOM     42  N   UNL     1     -29.561 -25.152  15.693  0.00  0.00    -0.186 N 
ATOM     43  H   UNL     1     -30.072 -24.729  16.442  0.00  0.00    +0.226 HD
ATOM     44  C   UNL     1     -28.543 -24.372  15.109  0.00  0.00    +0.193 A 
ATOM     45  C   UNL     1     -27.806 -25.018  14.017  0.00  0.00    +0.022 A 
ATOM     46  C   UNL     1     -26.699 -24.305  13.305  0.00  0.00    +0.045 C 
ATOM     47  O   UNL     1     -28.353 -23.232  15.537  0.00  0.00    -0.408 OA
ATOM     48  O   UNL     1     -30.828 -27.034  15.904  0.00  0.00    -0.384 OA
ATOM     49  C   UNL     1     -28.146 -26.276  13.650  0.00  0.00    +0.153 A 
ENDBRANCH  37  40
BRANCH  39  50
ATOM     50  C   UNL     1     -27.004 -30.718  13.043  0.00  0.00    +0.235 C 
BRANCH  50  51
ATOM     51  O   UNL     1     -26.633 -30.165  11.756  0.00  0.00    -0.273 OA
BRANCH  51  52
ATOM     52  P   UNL     1     -25.162 -29.478  11.487  0.00  0.00    +0.201 P 
ATOM     53  O   UNL     1     -24.248 -29.960  12.627  0.00  0.00    -0.554 OA
ATOM     54  O   UNL     1     -24.700 -29.966  10.095  0.00  0.00    -0.554 OA
ATOM     55  O   UNL     1     -25.411 -27.958  11.532  0.00  0.00    -0.554 OA
ENDBRANCH  51  52
ENDBRANCH  50  51
ENDBRANCH  39  50
ENDBRANCH  34  35
ENDBRANCH  31  34
ENDBRANCH  30  31
ENDBRANCH   1  30
TORSDOF 16
ENDMDL
MODEL 8
REMARK VINA RESULT:      -7.4      6.752     11.193
REMARK  Name = 1u1b_ligand
REMARK  17 active torsions:
REMARK  status: ('A' for Active; 'I' for Inactive)
REMARK    1  A    between atoms: PA_1  and  O5_4
REMARK    2  A    between atoms: PA_1  and  O3A_8
REMARK    3  A    between atoms: O5_4  and  C5_23
REMARK    4  A    between atoms: PB_5  and  O3A_8
REMARK    5  A    between atoms: PB_5  and  O3_38
REMARK    6  A    between atoms: PG_9  and  O3_30
REMARK    7  A    between atoms: N9A_13  and  C1_26
REMARK    8  A    between atoms: C6A_18  and  N6A_19
REMARK    9  A    between atoms: C5_23  and  C4_24
REMARK   10  A    between atoms: C2_27  and  O2_28
REMARK   11  A    between atoms: C3_29  and  O3_30
REMARK   12  A    between atoms: O5_31  and  C5_32
REMARK   13  A    between atoms: O5_31  and  PD_39
REMARK   14  A    between atoms: C5_32  and  C4_33
REMARK   15  A    between atoms: C1_35  and  N1T_43
REMARK   16  A    between atoms: C3_37  and  O3_38
REMARK   17  A    between atoms: C5T_50  and  CM5_51
REMARK                            x       y       z     vdW  Elec       q    Type
REMARK                         _______ _______ _______ _____ _____    ______ ____
ROOT
ATOM      1  P   UNL     1     -31.343 -34.291  16.531  0.00  0.00    +0.297 P 
ATOM      2  O   UNL     1     -31.882 -35.423  15.648  0.00  0.00    -0.613 OA
ATOM      3  O   UNL     1     -31.359 -32.887  15.919  0.00  0.00    -0.613 OA
ENDROOT
BRANCH   1   4
ATOM      4  O   UNL     1     -29.876 -34.693  17.005  0.00  0.00    -0.248 OA
BRANCH   4   5
ATOM      5  C   UNL     1     -28.749 -33.954  16.590  0.00  0.00    +0.243 C 
BRANCH   5   6
ATOM      6  C   UNL     1     -27.965 -33.523  17.789  0.00  0.00    +0.189 C 
ATOM      7  C   UNL     1     -27.760 -32.010  17.880  0.00  0.00    +0.219 C 
ATOM      8  C   UNL     1     -26.235 -31.852  17.779  0.00  0.00    +0.211 C 
ATOM      9  C   UNL     1     -25.727 -33.194  18.340  0.00  0.00    +0.301 C 
ATOM     10  O   UNL     1     -26.624 -34.115  17.760  0.00  0.00    -0.336 OA
BRANCH   9  11
ATOM     11  N   UNL     1     -24.309 -33.605  18.099  0.00  0.00    -0.192 N 
ATOM     12  C   UNL     1     -23.411 -33.904  19.111  0.00  0.00    +0.247 A 
ATOM     13  N   UNL     1     -22.207 -34.245  18.697  0.00  0.00    -0.296 NA
ATOM     14  C   UNL     1     -22.297 -34.170  17.315  0.00  0.00    +0.104 A 
ATOM     15  C   UNL     1     -21.349 -34.413  16.254  0.00  0.00    +0.130 A 
ATOM     16  N   UNL     1     -21.764 -34.246  14.950  0.00  0.00    -0.270 NA
ATOM     17  C   UNL     1     -23.058 -33.858  14.714  0.00  0.00    +0.153 A 
ATOM     18  N   UNL     1     -24.038 -33.601  15.634  0.00  0.00    -0.271 NA
ATOM     19  C   UNL     1     -23.596 -33.776  16.920  0.00  0.00    +0.161 A 
BRANCH  15  20
ATOM     20  N   UNL     1     -20.091 -34.786  16.467  0.00  0.00    -0.315 N 
ATOM     21  H   UNL     1     -19.888 -35.616  17.044  0.00  0.00    +0.182 HD
ATOM     22  H   UNL     1     -19.316 -34.245  16.055  0.00  0.00    +0.182 HD
ENDBRANCH  15  20
ENDBRANCH   9  11
BRANCH   8  23
ATOM     23  O   UNL     1     -25.708 -30.717  18.453  0.00  0.00    -0.383 OA
ATOM     24  H   UNL     1     -24.767 -30.813  18.547  0.00  0.00    +0.210 HD
ENDBRANCH   8  23
BRANCH   7  25
ATOM     25  O   UNL     1     -28.248 -31.594  19.160  0.00  0.00    -0.267 OA
BRANCH  25  26
ATOM     26  P   UNL     1     -29.061 -30.192  19.374  0.00  0.00    +0.201 P 
ATOM     27  O   UNL     1     -28.770 -29.666  20.791  0.00  0.00    -0.554 OA
ATOM     28  O   UNL     1     -30.532 -30.549  19.207  0.00  0.00    -0.554 OA
ATOM     29  O   UNL     1     -28.546 -29.224  18.310  0.00  0.00    -0.554 OA
ENDBRANCH  25  26
ENDBRANCH   7  25
ENDBRANCH   5   6
ENDBRANCH   4   5
ENDBRANCH   1   4
BRANCH   1  30
ATOM     30  O   UNL     1     -32.120 -34.293  17.913  0.00  0.00    -0.132 OA
BRANCH  30  31
ATOM     31  P   UNL     1     -33.503 -34.886  18.388  0.00  0.00    +0.297 P 
ATOM     32  O   UNL     1     -33.302 -36.321  18.692  0.00  0.00    -0.613 OA
ATOM     33  O   UNL     1     -34.546 -34.506  17.415  0.00  0.00    -0.613 OA
BRANCH  31  34
ATOM     34  O   UNL     1     -33.717 -34.186  19.841  0.00  0.00    -0.244 OA
BRANCH  34  35
ATOM     35  C   UNL     1     -35.021 -33.933  20.366  0.00  0.00    +0.197 C 
ATOM     36  C   UNL     1     -35.511 -35.144  21.142  0.00  0.00    +0.106 C 
ATOM     37  C   UNL     1     -35.023 -34.859  22.557  0.00  0.00    +0.272 C 
ATOM     38  O   UNL     1     -35.094 -33.457  22.712  0.00  0.00    -0.339 OA
ATOM     39  C   UNL     1     -34.937 -32.818  21.415  0.00  0.00    +0.186 C 
BRANCH  37  40
ATOM     40  N   UNL     1     -35.869 -35.528  23.602  0.00  0.00    -0.174 N 
ATOM     41  C   UNL     1     -36.178 -36.897  23.406  0.00  0.00    +0.327 A 
ATOM     42  N   UNL     1     -36.968 -37.463  24.404  0.00  0.00    -0.186 N 
ATOM     43  H   UNL     1     -37.202 -38.430  24.292  0.00  0.00    +0.226 HD
ATOM     44  C   UNL     1     -37.473 -36.824  25.554  0.00  0.00    +0.193 A 
ATOM     45  C   UNL     1     -37.109 -35.410  25.697  0.00  0.00    +0.022 A 
ATOM     46  C   UNL     1     -37.577 -34.607  26.869  0.00  0.00    +0.045 C 
ATOM     47  O   UNL     1     -38.172 -37.475  26.333  0.00  0.00    -0.408 OA
ATOM     48  O   UNL     1     -35.795 -37.533  22.452  0.00  0.00    -0.384 OA
ATOM     49  C   UNL     1     -36.344 -34.830  24.742  0.00  0.00    +0.153 A 
ENDBRANCH  37  40
BRANCH  39  50
ATOM     50  C   UNL     1     -35.986 -31.732  21.232  0.00  0.00    +0.235 C 
BRANCH  50  51
ATOM     51  O   UNL     1     -37.275 -32.172  21.727  0.00  0.00    -0.273 OA
BRANCH  51  52
ATOM     52  P   UNL     1     -38.059 -31.394  22.947  0.00  0.00    +0.201 P 
ATOM     53  O   UNL     1     -36.978 -30.640  23.741  0.00  0.00    -0.554 OA
ATOM     54  O   UNL     1     -39.084 -30.451  22.277  0.00  0.00    -0.554 OA
ATOM     55  O   UNL     1     -38.728 -32.511  23.773  0.00  0.00    -0.554 OA
ENDBRANCH  51  52
ENDBRANCH  50  51
ENDBRANCH  39  50
ENDBRANCH  34  35
ENDBRANCH  31  34
ENDBRANCH  30  31
ENDBRANCH   1  30
TORSDOF 16
ENDMDL
MODEL 9
REMARK VINA RESULT:      -7.4      3.132      5.456
REMARK  Name = 1u1b_ligand
REMARK  17 active torsions:
REMARK  status: ('A' for Active; 'I' for Inactive)
REMARK    1  A    between atoms: PA_1  and  O5_4
REMARK    2  A    between atoms: PA_1  and  O3A_8
REMARK    3  A    between atoms: O5_4  and  C5_23
REMARK    4  A    between atoms: PB_5  and  O3A_8
REMARK    5  A    between atoms: PB_5  and  O3_38
REMARK    6  A    between atoms: PG_9  and  O3_30
REMARK    7  A    between atoms: N9A_13  and  C1_26
REMARK    8  A    between atoms: C6A_18  and  N6A_19
REMARK    9  A    between atoms: C5_23  and  C4_24
REMARK   10  A    between atoms: C2_27  and  O2_28
REMARK   11  A    between atoms: C3_29  and  O3_30
REMARK   12  A    between atoms: O5_31  and  C5_32
REMARK   13  A    between atoms: O5_31  and  PD_39
REMARK   14  A    between atoms: C5_32  and  C4_33
REMARK   15  A    between atoms: C1_35  and  N1T_43
REMARK   16  A    between atoms: C3_37  and  O3_38
REMARK   17  A    between atoms: C5T_50  and  CM5_51
REMARK                            x       y       z     vdW  Elec       q    Type
REMARK                         _______ _______ _______ _____ _____    ______ ____
ROOT
ATOM      1  P   UNL     1     -30.387 -29.194  16.990  0.00  0.00    +0.297 P 
ATOM      2  O   UNL     1     -31.771 -29.256  17.646  0.00  0.00    -0.613 OA
ATOM      3  O   UNL     1     -29.612 -27.884  17.163  0.00  0.00    -0.613 OA
ENDROOT
BRANCH   1   4
ATOM      4  O   UNL     1     -30.556 -29.560  15.448  0.00  0.00    -0.248 OA
BRANCH   4   5
ATOM      5  C   UNL     1     -29.468 -30.041  14.691  0.00  0.00    +0.243 C 
BRANCH   5   6
ATOM      6  C   UNL     1     -29.427 -29.337  13.371  0.00  0.00    +0.189 C 
ATOM      7  C   UNL     1     -28.012 -29.017  12.887  0.00  0.00    +0.219 C 
ATOM      8  C   UNL     1     -27.992 -27.481  12.841  0.00  0.00    +0.211 C 
ATOM      9  C   UNL     1     -29.476 -27.140  12.604  0.00  0.00    +0.301 C 
ATOM     10  O   UNL     1     -30.129 -28.053  13.458  0.00  0.00    -0.336 OA
BRANCH   9  11
ATOM     11  N   UNL     1     -29.959 -25.745  12.845  0.00  0.00    -0.192 N 
ATOM     12  C   UNL     1     -30.724 -25.027  11.938  0.00  0.00    +0.247 A 
ATOM     13  N   UNL     1     -31.050 -23.813  12.333  0.00  0.00    -0.296 NA
ATOM     14  C   UNL     1     -30.467 -23.701  13.586  0.00  0.00    +0.104 A 
ATOM     15  C   UNL     1     -30.434 -22.640  14.563  0.00  0.00    +0.130 A 
ATOM     16  N   UNL     1     -29.751 -22.852  15.741  0.00  0.00    -0.270 NA
ATOM     17  C   UNL     1     -29.132 -24.060  15.937  0.00  0.00    +0.153 A 
ATOM     18  N   UNL     1     -29.097 -25.132  15.087  0.00  0.00    -0.271 NA
ATOM     19  C   UNL     1     -29.785 -24.892  13.927  0.00  0.00    +0.161 A 
BRANCH  15  20
ATOM     20  N   UNL     1     -31.025 -21.463  14.387  0.00  0.00    -0.315 N 
ATOM     21  H   UNL     1     -31.736 -21.346  13.649  0.00  0.00    +0.182 HD
ATOM     22  H   UNL     1     -30.773 -20.664  14.987  0.00  0.00    +0.182 HD
ENDBRANCH  15  20
ENDBRANCH   9  11
BRANCH   8  23
ATOM     23  O   UNL     1     -27.117 -26.927  11.868  0.00  0.00    -0.383 OA
ATOM     24  H   UNL     1     -27.130 -25.979  11.936  0.00  0.00    +0.210 HD
ENDBRANCH   8  23
BRANCH   7  25
ATOM     25  O   UNL     1     -27.875 -29.584  11.581  0.00  0.00    -0.267 OA
BRANCH  25  26
ATOM     26  P   UNL     1     -26.491 -30.293  11.074  0.00  0.00    +0.201 P 
ATOM     27  O   UNL     1     -25.433 -29.199  10.846  0.00  0.00    -0.554 OA
ATOM     28  O   UNL     1     -26.851 -30.995   9.771  0.00  0.00    -0.554 OA
ATOM     29  O   UNL     1     -26.063 -31.252  12.183  0.00  0.00    -0.554 OA
ENDBRANCH  25  26
ENDBRANCH   7  25
ENDBRANCH   5   6
ENDBRANCH   4   5
ENDBRANCH   1   4
BRANCH   1  30
ATOM     30  O   UNL     1     -29.513 -30.415  17.499  0.00  0.00    -0.132 OA
BRANCH  30  31
ATOM     31  P   UNL     1     -29.348 -31.134  18.894  0.00  0.00    +0.297 P 
ATOM     32  O   UNL     1     -30.201 -32.344  18.885  0.00  0.00    -0.613 OA
ATOM     33  O   UNL     1     -29.536 -30.140  19.968  0.00  0.00    -0.613 OA
BRANCH  31  34
ATOM     34  O   UNL     1     -27.826 -31.706  18.827  0.00  0.00    -0.244 OA
BRANCH  34  35
ATOM     35  C   UNL     1     -27.216 -32.067  17.587  0.00  0.00    +0.197 C 
ATOM     36  C   UNL     1     -25.707 -31.915  17.689  0.00  0.00    +0.106 C 
ATOM     37  C   UNL     1     -25.260 -33.290  18.166  0.00  0.00    +0.272 C 
ATOM     38  O   UNL     1     -26.150 -34.211  17.569  0.00  0.00    -0.339 OA
ATOM     39  C   UNL     1     -27.430 -33.564  17.333  0.00  0.00    +0.186 C 
BRANCH  37  40
ATOM     40  N   UNL     1     -23.850 -33.610  17.757  0.00  0.00    -0.174 N 
ATOM     41  C   UNL     1     -22.897 -33.771  18.792  0.00  0.00    +0.327 A 
ATOM     42  N   UNL     1     -21.607 -34.062  18.355  0.00  0.00    -0.186 N 
ATOM     43  H   UNL     1     -20.912 -34.182  19.064  0.00  0.00    +0.226 HD
ATOM     44  C   UNL     1     -21.174 -34.206  17.022  0.00  0.00    +0.193 A 
ATOM     45  C   UNL     1     -22.214 -34.032  16.001  0.00  0.00    +0.022 A 
ATOM     46  C   UNL     1     -21.895 -34.156  14.545  0.00  0.00    +0.045 C 
ATOM     47  O   UNL     1     -19.984 -34.452  16.810  0.00  0.00    -0.408 OA
ATOM     48  O   UNL     1     -23.168 -33.665  19.965  0.00  0.00    -0.384 OA
ATOM     49  C   UNL     1     -23.477 -33.747  16.395  0.00  0.00    +0.153 A 
ENDBRANCH  37  40
BRANCH  39  50
ATOM     50  C   UNL     1     -27.930 -33.877  15.932  0.00  0.00    +0.235 C 
BRANCH  50  51
ATOM     51  O   UNL     1     -28.234 -35.287  15.797  0.00  0.00    -0.273 OA
BRANCH  51  52
ATOM     52  P   UNL     1     -27.483 -36.246  14.689  0.00  0.00    +0.201 P 
ATOM     53  O   UNL     1     -28.595 -37.044  13.987  0.00  0.00    -0.554 OA
ATOM     54  O   UNL     1     -26.726 -35.297  13.732  0.00  0.00    -0.554 OA
ATOM     55  O   UNL     1     -26.537 -37.145  15.508  0.00  0.00    -0.554 OA
ENDBRANCH  51  52
ENDBRANCH  50  51
ENDBRANCH  39  50
ENDBRANCH  34  35
ENDBRANCH  31  34
ENDBRANCH  30  31
ENDBRANCH   1  30
TORSDOF 16
ENDMDL
